85

Pd -1.273411 -3e-05 -0.000228
C -2.960904 -1.086568 2.206332
N -2.835803 0.164038 1.433785
C -4.056443 0.427725 0.627562
C -4.056578 -0.427665 -0.627924
N -2.835881 -0.164316 -1.434197
C -2.960907 1.086037 -2.207149
O 0.05758 0.154564 -1.562632
O 0.057511 -0.154903 1.562226
C -2.515723 1.29976 2.36654
C -2.23309 2.602066 1.654419
C -0.948344 2.849684 1.121486
C -0.697653 4.02073 0.390044
C -1.722828 4.959607 0.18662
C -2.995354 4.737773 0.737043
C -3.245329 3.566001 1.470586
C -2.51586 -1.30035 -2.366588
C -2.233075 -2.602401 -1.65405
C -3.245277 -3.566273 -1.469683
C -2.995185 -4.737758 -0.735717
C -1.72257 -4.959371 -0.185412
C -0.697424 -4.02058 -0.389393
C -0.948235 -2.849821 -1.121252
C 1.081984 -0.975818 1.311917
C 2.048159 -0.667347 0.329353
C 3.057027 -1.621125 -0.023271
C 3.995946 -1.389489 -1.076233
C 4.966955 -2.329468 -1.389637
C 5.059682 -3.545054 -0.659815
C 4.169023 -3.797314 0.374161
C 3.154746 -2.857253 0.715287
C 2.236703 -3.085475 1.778347
C 1.216132 -2.19589 2.081165
C 0.241336 -2.496083 3.186078
C 1.081887 0.975695 -1.312242
C 2.04806 0.667357 -0.329636
C 3.056679 1.62134 0.023151
C 3.995552 1.389854 1.076185
C 4.966306 2.330044 1.389752
C 5.058814 3.545703 0.660027
C 4.168193 3.797828 -0.374016
C 3.154168 2.857552 -0.715301
C 2.236149 3.085656 -1.778406
C 1.215801 2.195862 -2.081372
C 0.241023 2.495953 -3.18633
H -2.004751 -1.267708 2.722891
H -3.787975 -1.010137 2.949271
H -3.152029 -1.936908 1.525444
H -4.057742 1.501555 0.361789
H -4.971472 0.234667 1.233279
H -4.971565 -0.234364 -1.233619
H -4.058181 -1.501485 -0.362131
H -2.004595 1.267204 -2.723405
H -3.787686 1.009252 -2.950378
H -3.152474 1.936515 -1.526561
H -3.364253 1.412866 3.079871
H -1.620845 0.967223 2.927085
H -0.142193 2.117528 1.288449
H 0.307896 4.187357 -0.024097
H -1.52496 5.876277 -0.390054
H -3.795661 5.481135 0.601019
H -4.242028 3.399993 1.911937
H -1.621083 -0.967981 -2.927396
H -3.364483 -1.413768 -3.079761
H -4.242047 -3.400449 -1.910945
H -3.795466 -5.481072 -0.599285
H -1.524604 -5.875807 0.3916
H 0.308189 -4.187029 0.024665
H -0.142102 -2.117743 -1.288645
H 3.929933 -0.448909 -1.641707
H 5.67357 -2.131012 -2.210238
H 5.837342 -4.28133 -0.914156
H 4.231987 -4.734521 0.950442
H 2.338541 -4.010985 2.369899
H 0.004824 -1.58898 3.776962
H -0.716914 -2.880285 2.774938
H 0.639426 -3.27109 3.86943
H 3.929713 0.449221 1.64159
H 5.672884 2.131698 2.21041
H 5.836274 4.282145 0.914497
H 4.230987 4.735093 -0.950221
H 2.337826 4.011233 -2.369878
H 0.004535 1.588797 -3.777138
H -0.717236 2.880199 -2.775244
H 0.639119 3.2709 -3.869749
