71

Pd -0.038431 -2.313915 0.125027
Cl -1.769487 -3.652364 0.891765
Cl 1.590335 -3.808565 0.822093
C 2.174082 -1.483836 -1.625042
N 1.455732 -0.917053 -0.460872
C 0.711908 0.318064 -0.838186
C -0.598702 -0.008101 -1.521749
N -1.429483 -0.92699 -0.690343
C -2.406445 -1.616221 -1.567647
C 2.362455 -0.670463 0.729038
C 3.419187 0.388901 0.516897
C 4.685354 0.027163 -0.033902
C 5.090597 -1.337515 -0.231702
C 6.322101 -1.650595 -0.775102
C 7.231548 -0.62416 -1.168542
C 6.893507 0.700228 -0.980804
C 5.634737 1.066596 -0.400967
C 5.301254 2.414236 -0.182356
C 4.099527 2.785255 0.44497
C 3.797858 4.162302 0.7078
C 2.639512 4.530253 1.36137
C 1.733371 3.523562 1.809632
C 1.982531 2.187504 1.555156
C 3.149704 1.754602 0.835774
C -2.089811 -0.256294 0.499792
C -3.250859 0.664659 0.191384
C -3.037433 2.054362 -0.053741
C -1.765194 2.70226 0.107497
C -1.587744 4.04747 -0.155735
C -2.678319 4.850134 -0.603629
C -3.928545 4.282923 -0.743374
C -4.152777 2.894803 -0.462706
C -5.435914 2.332896 -0.568449
C -5.682154 0.986501 -0.249752
C -7.008738 0.44706 -0.311709
C -7.258072 -0.867181 0.025322
C -6.183439 -1.704968 0.446506
C -4.88762 -1.227033 0.505019
C -4.575531 0.130966 0.151261
H 2.595533 -2.461759 -1.331664
H 1.45292 -1.654542 -2.445651
H 2.975332 -0.799138 -1.976111
H 0.524245 0.886426 0.087487
H 1.336754 0.976458 -1.480771
H -0.41347 -0.527224 -2.482175
H -1.156415 0.923723 -1.761284
H -2.949135 -2.374081 -0.978617
H -3.111599 -0.888466 -2.022202
H -1.846015 -2.140565 -2.363524
H 1.687726 -0.416004 1.565803
H 2.778149 -1.661616 0.985509
H 4.422285 -2.15494 0.071446
H 6.606782 -2.706313 -0.898824
H 8.203779 -0.893416 -1.607798
H 7.591054 1.504282 -1.262415
H 6.01006 3.199365 -0.490368
H 4.524878 4.923456 0.384438
H 2.424457 5.590532 1.561639
H 0.834524 3.810328 2.376406
H 1.283925 1.439981 1.956024
H -1.287977 0.271458 1.046973
H -2.397191 -1.093477 1.15144
H -0.905105 2.131172 0.476943
H -0.594582 4.49907 -0.00842
H -2.522571 5.917664 -0.819375
H -4.787571 4.891802 -1.065705
H -6.275353 2.969883 -0.89007
H -7.827099 1.112876 -0.626972
H -8.281164 -1.269568 -0.020912
H -6.385681 -2.748241 0.732183
H -4.093441 -1.912961 0.834319
