33

C -1.765244 -0.236569 -0.473214
C -3.791334 -0.319636 -1.48424
H -4.498692 -0.291703 -2.317823
C -3.988873 -0.527115 -0.143747
H -4.901708 -0.716005 0.428013
C -1.759909 0.112825 -2.932938
H -1.321716 1.130674 -2.924003
H -2.496865 0.024483 -3.75167
H -0.946015 -0.622795 -3.078909
C -2.490443 -0.602403 1.886975
H -1.501744 -1.08332 2.020663
H -3.260713 -1.268489 2.323869
C -2.513233 0.754606 2.59041
H -1.703624 1.389444 2.159897
H -3.484801 1.264931 2.365861
C 2.853769 -0.486728 1.173488
H 2.198609 -1.118553 1.790116
C 4.22475 -0.374353 1.425814
H 4.66153 -0.911929 2.279281
C 5.012317 0.415979 0.577244
H 6.094858 0.517149 0.747013
C 4.390242 1.074302 -0.492731
H 4.960933 1.705541 -1.188472
C 3.010947 0.929067 -0.672022
H 2.470862 1.448513 -1.476489
N -2.426038 -0.14623 -1.665081
N -2.737841 -0.480705 0.456681
N 2.254875 0.158188 0.144515
O -2.343772 0.499143 3.971193
H -2.081926 1.335043 4.393481
I 0.370665 -2.701702 -0.179515
I -0.132182 2.615585 -0.2527
Pt 0.16906 -0.043468 -0.17841
