46

Cd 0.312755 0.452547 -0.063047
O 4.444477 0.130984 -1.059322
O 0.859602 1.153173 2.618248
H 0.925074 1.924923 1.982505
H 0.014253 1.305214 3.077806
N -2.126415 0.618408 0.182117
N -0.596705 -1.520485 0.80445
N 2.272274 -0.949901 0.489371
N 0.886836 2.549633 0.295317
N 0.200019 3.468304 -0.114241
N -0.429845 4.375684 -0.483105
N -0.007773 -0.454918 -2.119859
N -0.956176 -1.198069 -2.163278
N -1.874523 -1.930828 -2.194224
C -2.861675 1.713763 -0.071465
H -2.312403 2.660419 -0.210329
C -4.260884 1.675931 -0.163436
H -4.823387 2.598139 -0.366471
C -4.905577 0.44263 0.005217
H -6.001156 0.367478 -0.063134
C -4.136378 -0.700183 0.251469
H -4.620501 -1.67803 0.368801
C -2.734209 -0.581526 0.335846
C -1.851931 -1.765955 0.602173
C -2.486928 -3.12904 0.671071
H -3.103915 -3.303617 -0.229592
H -3.14059 -3.209207 1.565525
H -1.731499 -3.931547 0.723328
C 0.399831 -2.544909 1.033491
H 0.531887 -3.152602 0.108485
H 0.08793 -3.256884 1.829249
C 1.723462 -1.905043 1.465607
H 1.54862 -1.335803 2.400698
H 2.466256 -2.710846 1.682966
C 2.76122 -1.607316 -0.741167
H 1.911714 -2.08952 -1.263799
H 3.51596 -2.38744 -0.473531
C 3.391629 -0.581987 -1.681759
H 3.819143 -1.099799 -2.563118
H 2.595924 0.111346 -2.048453
C 3.959831 0.812387 0.087116
H 3.193364 1.57602 -0.195006
H 4.820404 1.343608 0.540048
C 3.363774 -0.15769 1.102086
H 4.164393 -0.848345 1.465379
H 2.946822 0.389818 1.970149
