43

Zn -0.290496 0.337419 0.113016
O -4.583172 0.625893 -0.034809
N 1.885999 0.789839 -0.188742
N 0.525018 -1.385012 -0.845338
N -2.177002 -0.962912 -0.055855
N -1.049714 2.05659 -0.400626
N -0.518658 3.145367 -0.369781
N -0.052467 4.214551 -0.360422
N 0.101994 -0.356388 1.9917
N 1.069046 -1.076035 2.064894
N 2.006167 -1.779625 2.107422
C 2.518775 1.938366 0.101317
H 1.885163 2.811899 0.323053
C 3.917763 2.043419 0.099733
H 4.394506 3.006648 0.33002
C 4.675618 0.902979 -0.200133
H 5.775021 0.944111 -0.204956
C 4.014485 -0.296386 -0.489127
H 4.586946 -1.205669 -0.713176
C 2.606464 -0.318097 -0.478143
C 1.811699 -1.547983 -0.782743
C 2.556299 -2.831378 -1.018412
H 3.196605 -3.05279 -0.143147
H 3.209324 -2.739082 -1.910783
H 1.88195 -3.689462 -1.17932
C -0.431881 -2.44731 -1.059964
H -0.003593 -3.46756 -0.966252
H -0.825399 -2.356981 -2.096885
C -1.574545 -2.304036 -0.047228
H -2.344676 -3.088462 -0.245061
H -1.169734 -2.475355 0.970247
C -3.009202 -0.782593 1.159114
H -2.332892 -0.827296 2.037429
H -3.751164 -1.615663 1.228218
C -3.755954 0.545451 1.117085
H -4.415987 0.628243 2.003209
H -3.023972 1.387073 1.133395
C -3.776535 0.568151 -1.201157
H -3.060608 1.421493 -1.227338
H -4.45678 0.632914 -2.073914
C -2.99524 -0.744386 -1.271923
H -3.71024 -1.596969 -1.387829
H -2.333412 -0.728632 -2.162182
