46

Co -0.059761 -0.196153 0.046207
O -4.889674 -0.359597 0.099032
N 1.837913 -0.39923 0.08174
N 0.347947 1.578636 0.485356
N -2.055351 0.371989 0.038037
N -0.507103 -2.027352 -0.364514
N -0.137033 -2.535753 -1.408132
N 0.196736 -3.09736 -2.372463
N -0.003646 0.275934 -1.89352
N 0.883294 1.023321 -2.24658
N 1.727478 1.751116 -2.602141
N -0.106259 -0.623825 1.976214
N 0.463016 -1.64545 2.306683
N 1.010146 -2.607466 2.673502
C 2.534064 -1.543116 -0.047704
H 1.946929 -2.463143 -0.167936
C 3.934967 -1.555904 -0.02456
H 4.462874 -2.512096 -0.14267
C 4.629996 -0.350637 0.145205
H 5.729464 -0.3343 0.160018
C 3.903151 0.835867 0.300774
H 4.412447 1.797965 0.445972
C 2.500949 0.786397 0.274093
C 1.604691 1.9326 0.486233
C 2.13689 3.315541 0.688722
H 1.3301 4.054097 0.839529
H 2.724927 3.61977 -0.201205
H 2.808734 3.356128 1.570596
C -0.814449 2.391849 0.765942
H -0.656551 3.473587 0.570768
H -1.0452 2.27397 1.848352
C -1.955955 1.855405 -0.093924
H -2.907492 2.362407 0.169425
H -1.735777 2.063738 -1.158389
C -2.764592 -0.062106 1.276594
H -2.290617 0.403986 2.159593
H -2.585094 -1.150279 1.364151
C -4.266584 0.225883 1.225113
H -4.744279 -0.207472 2.126763
H -4.46284 1.3294 1.249661
C -4.276056 0.088158 -1.098551
H -4.460422 1.183252 -1.245824
H -4.770678 -0.442825 -1.93621
C -2.784171 -0.231052 -1.119397
H -2.633783 -1.323964 -1.032619
H -2.289171 0.103466 -2.050338
