69

Ru 1.805062 -0.035766 -0.802398
N -2.02165 0.314394 -0.608845
N -2.037157 -0.95133 -0.15004
N 1.123948 0.627522 1.04999
N -0.14177 1.077792 0.939695
N 0.736797 -1.948644 -0.603813
C -3.289755 -1.401382 -0.322029
C -4.111817 -0.422066 -0.920972
C -3.2547 0.664724 -1.090188
C 1.493252 0.765704 2.344399
C 0.423819 1.302957 3.09134
C -0.59606 1.490298 2.15965
C -3.656516 -2.804263 0.059844
C -3.568948 1.99388 -1.714531
C 2.861541 0.433123 2.861589
C -1.965455 2.057748 2.392375
C 1.030475 -3.101039 0.328031
C 3.444669 1.389108 -0.92845
C 4.545959 0.966964 -1.901164
C 4.411534 -0.503156 -2.345461
C 2.970295 -0.982422 -2.34374
C 1.886106 -0.284039 -2.943004
C 2.041207 1.034878 -3.700766
C 1.852243 2.270451 -2.792608
C 2.237967 2.00833 -1.346677
F -3.162902 -3.712049 -0.830355
F -4.996709 -2.960325 0.086753
F -3.166315 -3.146253 1.274267
F -2.759688 2.254229 -2.772773
F -4.844048 1.993379 -2.166168
F -3.441993 3.022861 -0.848779
F 3.815553 1.263779 2.367172
F 3.251374 -0.831355 2.560794
F 2.881662 0.555446 4.207059
F -2.174191 3.180089 1.668314
F -2.945568 1.180248 2.06439
F -2.114187 2.370201 3.698017
C 0.549608 -2.71721 1.733186
C 0.242807 -4.324054 -0.178814
C 2.52884 -3.418874 0.328941
B -0.726156 1.139505 -0.507157
H 3.058098 -0.695059 -0.119363
H 0.103213 0.605023 -1.310445
H -0.89878 2.282567 -0.877431
H 0.754899 -2.332592 -1.561468
H -0.264325 -1.692679 -0.438685
H -5.169853 -0.485645 -1.187849
H 0.397808 1.526325 4.160506
H 3.785538 1.620893 0.091843
H 4.535684 1.642391 -2.781334
H 5.532757 1.119398 -1.420331
H 4.975972 -1.150916 -1.643412
H 4.871895 -0.660713 -3.348361
H 2.875206 -2.08116 -2.268977
H 1.018812 -0.896262 -3.258237
H 3.036895 1.057989 -4.190143
H 1.301825 1.068295 -4.52549
H 0.786569 2.57532 -2.806663
H 2.42405 3.140685 -3.190286
H 1.750096 2.684952 -0.62108
H 1.119272 -1.856389 2.122931
H 0.700082 -3.566786 2.427368
H -0.528324 -2.461972 1.727291
H 0.583125 -4.622131 -1.193421
H -0.844257 -4.120755 -0.224254
H 0.399086 -5.191938 0.492087
H 2.883519 -3.69945 -0.684124
H 2.731853 -4.273563 1.003863
H 3.116856 -2.547983 0.673938
