79

Os 0.359852 6.4e-05 -0.0
H -0.431212 -0.208533 1.425597
H -0.431171 0.208462 -1.425655
P -0.934161 -1.932207 -0.154816
P -0.934752 1.931944 0.154831
N 1.953733 0.979012 -0.786365
H 1.939482 1.771218 -1.436078
N 1.95395 -0.978485 0.786434
H 1.939879 -1.770741 1.436089
C 3.217863 0.560398 -0.446018
C 3.21799 -0.55956 0.446123
C 4.445529 -1.109045 0.879988
H 4.440339 -1.972339 1.565249
C 5.652337 -0.552448 0.439308
H 6.607175 -0.980806 0.780248
C 5.652212 0.55387 -0.439162
H 6.606953 0.982457 -0.780087
C 4.445278 1.110176 -0.879864
H 4.439892 1.973464 -1.565131
C -2.815369 -1.832723 0.04211
H -3.027497 -0.928366 -0.565539
C -3.215729 -1.525131 1.490235
H -4.25655 -1.140541 1.52951
H -2.550288 -0.769823 1.952359
H -3.182069 -2.436989 2.119604
C -3.655133 -2.982899 -0.529423
H -3.501538 -3.929152 0.023412
H -3.449506 -3.177634 -1.598983
H -4.7333 -2.728425 -0.445454
C -0.310325 -3.308218 0.99316
H 0.740263 -3.382981 0.636566
C -0.260661 -2.897966 2.472252
H -1.261101 -2.949451 2.944475
H 0.115636 -1.865027 2.605519
H 0.401042 -3.589738 3.034989
C -0.95792 -4.688184 0.831163
H -0.37357 -5.444571 1.396666
H -1.001914 -5.028072 -0.221768
H -1.987565 -4.706058 1.240969
C -0.737735 -2.747222 -1.851151
H -1.304127 -3.70174 -1.798645
C -1.335185 -1.888443 -2.971595
H -0.778084 -0.934585 -3.065892
H -2.403231 -1.642014 -2.807915
H -1.260278 -2.425432 -3.940198
C 0.737843 -3.053715 -2.133887
H 0.850408 -3.473859 -3.154951
H 1.165523 -3.788904 -1.424039
H 1.346054 -2.12777 -2.067084
C -0.73916 2.746731 1.85136
H -1.305698 3.701157 1.798742
C -1.336895 1.887749 2.971492
H -0.779793 0.933893 3.065823
H -2.404889 1.641329 2.807469
H -1.262282 2.42459 3.9402
C 0.736255 3.053486 2.13467
H 0.848352 3.473639 3.155782
H 1.164066 3.788755 1.424985
H 1.344665 2.127657 2.068082
C -0.310801 3.308276 -0.992686
H 0.739695 3.383042 -0.635834
C -0.260786 2.898284 -2.471842
H -1.261078 2.950104 -2.944343
H 0.115289 1.865273 -2.605199
H 0.401238 3.590002 -3.034266
C -0.958562 4.68815 -0.830598
H -0.374202 5.444671 -1.395911
H -1.002743 5.027895 0.222373
H -1.988148 4.705976 -1.240551
C -2.815861 1.832054 -0.042837
H -3.028033 0.927677 0.564769
C -3.65609 2.982076 0.528328
H -3.50259 3.928294 -0.024599
H -3.450812 3.177027 1.597916
H -4.734168 2.727312 0.444101
C -3.215628 1.524337 -1.491104
H -4.256323 1.139445 -1.530739
H -2.549807 0.769221 -1.953
H -3.18201 2.436213 -2.120451
