72

C 1.696876 2.796434 0.946759
C 2.679346 3.519325 1.702845
H 3.286004 2.930905 2.406762
C 2.8636 4.886344 1.552062
H 3.635114 5.397122 2.150247
C 2.074844 5.632364 0.639498
H 2.223537 6.715506 0.524636
C 1.108846 4.966654 -0.100727
H 0.477985 5.528153 -0.810138
C 0.887996 3.560712 0.017219
C -0.167188 3.018607 -0.796956
H -0.702513 3.789529 -1.384681
C -1.71223 1.492156 -1.815296
H -1.482461 0.516992 -2.290797
C -2.985233 1.291817 -0.996416
C -3.923834 0.324389 -1.403806
H -3.697572 -0.313148 -2.273246
C -5.118555 0.139781 -0.694522
H -5.829135 -0.637386 -1.013891
C -5.394667 0.930647 0.432592
H -6.328272 0.783187 0.996494
C -4.46888 1.902447 0.842071
H -4.671826 2.519044 1.730793
C -3.270535 2.079694 0.133493
H -2.539135 2.825393 0.4793
C -1.965901 2.504655 -2.944206
H -2.748439 2.097304 -3.612929
H -1.051907 2.679622 -3.548495
H -2.340046 3.478185 -2.570235
C -1.050671 0.761623 2.565677
H -0.196516 1.449122 2.654716
C -2.053528 0.659455 3.53064
H -2.016417 1.300597 4.422053
C -3.080872 -0.277447 3.334189
H -3.886872 -0.38796 4.074809
C -3.075688 -1.074712 2.187042
H -3.863748 -1.812839 2.008389
C -2.044181 -0.933439 1.234947
C -1.875009 -1.676471 -0.009695
C -2.759612 -2.651461 -0.515705
C -2.547061 -3.301758 -1.731395
H -3.25271 -4.056868 -2.099179
C -1.397886 -2.952711 -2.456798
C -0.48864 -1.98954 -2.008624
H 0.392927 -1.770811 -2.627737
C -0.71385 -1.3272 -0.784064
C 2.02709 0.755294 -2.442464
H 1.169547 1.418514 -2.616943
C 3.105911 0.699596 -3.324269
H 3.104922 1.328612 -4.224963
C 4.170982 -0.164562 -3.022634
H 5.042952 -0.235769 -3.68964
C 4.113724 -0.939157 -1.862625
H 4.92684 -1.624497 -1.602552
C 2.995748 -0.853601 -1.002564
C 2.772477 -1.618412 0.219586
C 3.649594 -2.584149 0.763026
C 3.350903 -3.300776 1.920985
H 4.051655 -4.044645 2.319773
C 2.125731 -3.033171 2.547927
C 1.220726 -2.087057 2.057289
H 0.281895 -1.931177 2.606187
C 1.532903 -1.36124 0.894284
F -3.883908 -2.976397 0.166884
F -1.173284 -3.576053 -3.629163
F 1.820597 -3.719121 3.665313
F 4.834875 -2.852651 0.164106
Ir 0.425233 0.08792 0.044299
N -0.554252 1.77446 -0.941624
N -1.049488 -0.004499 1.45344
N 1.965457 0.010942 -1.315534
O 1.581881 1.521039 1.155729
