72

Ir 0.425264 0.087987 -0.044304
O 1.5817 1.521356 -1.155625
F 1.82119 -3.718592 -3.66559
F -3.883472 -2.976899 -0.167076
F 4.835221 -2.852125 -0.164161
N 1.965484 0.011107 1.315548
C -0.713621 -1.327353 0.783964
C -0.167652 3.018534 0.797109
H -0.7031 3.78933 1.384889
N -1.049452 -0.004529 -1.45344
C 0.887412 3.560871 -0.017069
C -1.050743 0.761675 -2.565623
H -0.196669 1.44928 -2.654635
C -1.874755 -1.6767 0.009592
C 2.995855 -0.853338 1.002574
C 2.678739 3.519878 -1.702733
H 3.285501 2.931594 -2.406674
F -1.172718 -3.576496 3.62889
C 4.113796 -0.938872 1.862683
H 4.926971 -1.624144 1.602611
C -2.044037 -0.933595 -1.234996
C 2.772702 -1.61809 -0.219635
N -0.554491 1.77431 0.941713
C -1.712417 1.49175 1.815375
H -1.482515 0.516559 2.290752
C -2.053607 0.659467 -3.530576
H -2.016587 1.300678 -4.421944
C -2.985417 1.291342 0.996507
C 1.221081 -2.086729 -2.05745
H 0.282258 -1.930892 -2.606376
C -5.394877 0.930017 -0.432428
H -6.328495 0.782506 -0.996297
C -1.966183 2.504082 2.944416
H -1.052172 2.679137 3.548654
H -2.7486 2.096524 3.613155
H -2.340522 3.47759 2.57058
C 2.126204 -3.032709 -2.54813
C -3.270877 2.079308 -0.133301
H -2.539597 2.825149 -0.479055
C -3.080847 -0.277561 -3.334169
H -3.886854 -0.388105 -4.074779
C 4.170949 -0.164335 3.022737
H 5.042888 -0.235527 3.689787
C -3.075553 -1.074908 -2.187078
H -3.863531 -1.813133 -2.008465
C -4.469235 1.901983 -0.841842
H -4.672305 2.518658 -1.730481
C 1.533133 -1.360982 -0.894366
C -3.92387 0.323735 1.403825
H -3.697482 -0.313872 2.273182
C 2.862722 4.886933 -1.551927
H 3.634118 5.397879 -2.150121
C -5.118604 0.139055 0.694581
H -5.829074 -0.638233 1.013903
C 1.696431 2.796772 -0.946637
C -1.397419 -2.953088 2.456577
C 2.073836 5.632775 -0.639327
H 2.222314 6.715945 -0.524444
C -2.759222 -2.651855 0.515531
C 1.107987 4.966855 0.100906
H 0.477032 5.528214 0.810344
C -0.488301 -1.989768 2.008464
H 0.393253 -1.770984 2.627578
C 2.027024 0.755417 2.44251
H 1.169433 1.418578 2.616984
C -2.546564 -3.302223 1.731167
H -3.252104 -4.057461 2.0989
C 3.649943 -2.583691 -0.763117
C 3.10581 0.699747 3.324362
H 3.104742 1.328722 4.225085
C 3.351375 -3.300247 -1.921154
H 4.05222 -4.044012 -2.319975
