72

C -0.702079 2.74701 1.645556
C -0.48838 4.09919 2.072064
H 0.557872 4.423705 2.171056
C -1.544138 4.963279 2.329559
H -1.33112 5.998743 2.640107
C -2.888908 4.533374 2.198105
H -3.720278 5.221868 2.406401
C -3.132696 3.222489 1.813467
H -4.16989 2.858933 1.722823
C -2.078365 2.305547 1.523888
C -2.470351 0.959129 1.205396
H -3.555892 0.765663 1.332746
C -2.411005 -1.36408 0.659422
H -1.663393 -2.026482 0.186811
C -3.591251 -1.288401 -0.300746
C -3.326949 -1.303726 -1.687361
H -2.28805 -1.434478 -2.029557
C -4.364552 -1.167895 -2.619569
H -4.137625 -1.186902 -3.696626
C -5.69096 -1.019616 -2.180386
H -6.508065 -0.913981 -2.910094
C -5.968774 -1.021583 -0.805566
H -7.006619 -0.920977 -0.452663
C -4.926818 -1.158269 0.126967
H -5.165564 -1.174329 1.200977
C -2.728042 -1.933803 2.044083
H -3.434365 -1.291026 2.607297
H -1.799931 -2.010629 2.643258
H -3.173165 -2.944628 1.955918
C -1.161913 1.591249 -1.908969
H -2.009871 1.097664 -1.417124
C -1.340691 2.427741 -3.010503
H -2.353886 2.600866 -3.398149
C -0.209149 3.028422 -3.585053
H -0.30797 3.700287 -4.450662
C 1.052073 2.763611 -3.04752
H 1.953469 3.21338 -3.476173
C 1.185406 1.900399 -1.937025
C 2.428132 1.491927 -1.29033
C 3.729494 1.893541 -1.667128
C 4.874028 1.425841 -1.022584
H 5.872018 1.755259 -1.337197
C 4.697098 0.522049 0.03476
C 3.433735 0.092875 0.452847
H 3.373362 -0.61479 1.291339
C 2.283736 0.577627 -0.194895
C 0.937504 -0.506256 3.146711
H 0.798754 0.583178 3.225344
C 1.221916 -1.327173 4.239009
H 1.309782 -0.887032 5.24177
C 1.392829 -2.704366 4.017493
H 1.618084 -3.381655 4.85478
C 1.28132 -3.214061 2.72063
H 1.415439 -4.282149 2.519133
C 0.993551 -2.346466 1.644261
C 0.845324 -2.691109 0.233343
C 0.965784 -3.984465 -0.321032
C 0.805639 -4.235012 -1.683506
H 0.903338 -5.250614 -2.086347
C 0.523443 -3.138367 -2.51234
C 0.394848 -1.835728 -2.021184
H 0.189598 -1.022705 -2.731915
C 0.540571 -1.586864 -0.641014
F 3.912871 2.763353 -2.689502
F 5.792864 0.057603 0.664057
F 1.243739 -5.044858 0.473635
F 0.369126 -3.362397 -3.830304
Ir 0.372594 0.169181 0.285115
N -1.731049 -0.036006 0.781482
N 0.055997 1.333215 -1.381313
N 0.820166 -1.001175 1.894741
O 0.336571 1.999002 1.422804
