62

Zr 3e-06 0.083898 -2.2e-05
Cl -0.714357 0.548314 -2.316397
Cl 0.71439 0.548312 2.316345
O 1.498905 1.827004 -0.485105
O -1.498994 1.826866 0.48508
N 1.453242 -1.381922 -0.42524
N -1.453245 -1.381904 0.425204
C 0.707519 -2.49271 -1.044189
C -3e-05 -3.379108 -5.3e-05
C -0.707517 -2.492708 1.04412
C 2.784724 -1.600204 -0.06543
C 3.531913 -0.55387 0.547082
C 4.876957 -0.71832 0.88855
C 5.540723 -1.932986 0.642945
C 4.816411 -2.982938 0.060097
C 3.466621 -2.828917 -0.28632
C -2.784749 -1.60015 0.065441
C -3.466688 -2.828828 0.286405
C -4.816491 -2.982822 -0.059971
C -5.540781 -1.932876 -0.642855
C -4.876972 -0.718252 -0.888552
C -3.531913 -0.553831 -0.54713
C 2.321816 1.792645 -1.69561
C 3.45754 2.767887 -1.4142
C 2.76996 3.818454 -0.53087
C 1.879696 2.953863 0.355156
C -1.879577 2.953876 -0.355065
C -2.769644 3.818549 0.531073
C -3.457511 2.767994 1.414195
C -2.322031 1.792432 1.6955
H 1.36143 -3.091278 -1.712892
H -0.058982 -2.056816 -1.720393
H 0.728329 -4.035011 0.521398
H -0.728435 -4.034936 -0.521534
H -1.361407 -3.091267 1.71285
H 0.059018 -2.056828 1.720296
H 3.02333 0.38964 0.777977
H 5.413776 0.117437 1.364947
H 6.599254 -2.061241 0.912744
H 5.306827 -3.950966 -0.128317
H 2.938875 -3.683766 -0.729173
H -2.938966 -3.683677 0.729287
H -5.306936 -3.950823 0.128506
H -6.599323 -2.061108 -0.912624
H -5.41377 0.117495 -1.36499
H -3.0233 0.389639 -0.778113
H 1.679052 2.098319 -2.546918
H 2.644955 0.7447 -1.847546
H 3.889746 3.18688 -2.343092
H 4.267983 2.257327 -0.854053
H 3.47736 4.430981 0.06076
H 2.156724 4.5052 -1.151191
H 2.410487 2.556388 1.245721
H 0.953017 3.449046 0.705433
H -2.410495 2.556608 -1.245649
H -0.952803 3.448882 -0.705333
H -2.15625 4.50503 1.151531
H -3.476873 4.431354 -0.060473
H -4.268045 2.257721 0.853915
H -3.889669 3.186931 2.343135
H -1.679266 2.097765 2.546927
H -2.645436 0.74453 1.847172
