46

N -0.694426 -0.233465 -0.70416
S -0.466397 -1.872826 -0.943849
S -1.779748 0.091017 0.512933
O -0.288182 -2.133974 -2.387031
O 0.520063 -2.476828 -0.006031
O -2.597188 1.276173 0.166747
O -1.155024 0.08449 1.873251
C -2.108581 -2.405053 -0.388008
C -2.761361 -1.422479 0.359796
C -4.024906 -1.646871 0.911668
H -4.531545 -0.857111 1.485453
C -4.624929 -2.89876 0.690397
H -5.623999 -3.102334 1.104235
C -3.967787 -3.889968 -0.06289
H -4.459169 -4.859999 -0.231756
C -2.695192 -3.653082 -0.611376
H -2.175335 -4.413233 -1.21275
Ag 1.272164 0.956178 -0.227754
N 0.149393 2.847764 -0.408799
C -0.263244 3.527231 0.690652
C -1.219973 4.553125 0.575853
H -1.541315 5.090298 1.479612
C -1.76449 4.862573 -0.674052
H -2.520295 5.656604 -0.770825
C -1.34122 4.137379 -1.79632
H -1.74845 4.332179 -2.798152
C -0.385961 3.135649 -1.613959
H -0.038661 2.520912 -2.458547
C 0.289665 3.097696 2.015117
H -0.191431 2.13539 2.302028
H 0.093429 3.844992 2.806172
H 1.382375 2.918348 1.941351
N 2.961064 -0.374693 0.037317
C 3.030031 -1.126239 1.168697
C 3.954176 -2.183984 1.258907
H 3.993963 -2.779133 2.18219
C 4.793824 -2.477772 0.179926
H 5.510863 -3.310261 0.242398
C 4.703538 -1.696734 -0.980839
H 5.337711 -1.88703 -1.85787
C 3.773211 -0.655182 -1.004942
H 3.663081 -0.014542 -1.89341
C 2.078279 -0.80003 2.275914
H 2.113008 0.282164 2.51844
H 2.303245 -1.379293 3.190274
H 1.039073 -1.030515 1.957017
