44

Zn 0.076341 0.050737 0.650622
O 0.493031 2.113148 0.783905
O 0.013512 4.287939 0.392333
N -1.723788 0.520148 -0.24718
N -3.892788 0.733101 -0.777767
C -1.898839 1.705105 -0.930565
C -3.239234 1.853396 -1.266193
H -3.766633 2.647507 -1.801965
C -5.219521 0.374523 -0.836681
H -5.891429 1.07439 -1.351286
C -5.621762 -0.812538 -0.260821
H -6.682274 -1.094298 -0.313907
C -4.674246 -1.652476 0.389714
H -5.003306 -2.598038 0.843744
C -3.334461 -1.294227 0.454441
H -2.566971 -1.912616 0.946591
C -2.931986 -0.078129 -0.145888
C -0.764178 2.636005 -1.196495
H -1.119353 3.527783 -1.742693
H -0.006779 2.115561 -1.823288
C -0.037993 3.099686 0.105588
O 0.47843 0.538821 2.712451
H 0.506054 1.491431 2.403323
H -0.318964 0.452637 3.266857
O -0.404573 -1.838814 1.103568
O -0.928375 -3.915736 0.414303
N 1.753491 -0.543204 -0.350038
N 3.912386 -1.037113 -0.6924
C 1.842062 -1.851306 -0.778002
C 3.177868 -2.172653 -0.998222
H 3.652021 -3.09566 -1.34337
C 5.266457 -0.797799 -0.731842
H 5.900607 -1.630795 -1.06355
C 5.743101 0.442122 -0.357773
H 6.82594 0.623925 -0.391953
C 4.846234 1.462529 0.070418
H 5.240876 2.442651 0.373864
C 3.478956 1.225257 0.109237
H 2.734284 1.964069 0.443091
C 3.003325 -0.044728 -0.285042
C 0.628606 -2.696004 -0.942453
H 0.893008 -3.704867 -1.306379
H -0.0259 -2.233149 -1.715275
C -0.301506 -2.863098 0.313369
