15

Br 0.062851 2.512335 -0.124823
Br 2.287945 -0.148185 -0.893828
Br -2.5067 0.301875 0.706887
Br -0.401994 -2.53647 0.049075
C 1.570309 0.534685 2.365982
C 2.591514 -0.486255 2.872686
H 2.081764 1.280798 1.710723
H 1.156712 1.107515 3.235415
H 3.397016 0.011442 3.454846
H 2.097091 -1.23887 3.520629
H 3.048659 -1.017912 2.014406
N -0.605364 -0.113981 -1.886534
O -0.740653 -0.168758 -3.061227
O 0.519966 -0.098901 1.70447
Re -0.149636 -0.027051 -0.161522
