85

Ru 0.362511 -0.007644 0.007565
P -1.140559 -0.756068 1.610231
P 1.570593 -1.918223 -0.419718
P 1.934874 0.788458 1.484387
C -1.046174 -0.218842 -1.749857
C 0.174624 0.481846 -2.100019
C 0.445534 1.665363 -1.357612
C -0.558425 2.011583 -0.361439
C -1.981424 1.78642 -0.682644
C -5.501884 2.979553 -0.070724
C -6.811476 2.580023 -0.321128
C -7.06473 1.385531 -1.04111
C -6.003792 0.611078 -1.501784
C -4.654754 0.995617 -1.266041
C -3.547061 0.206524 -1.708114
C -2.243215 0.574584 -1.420678
C -3.038433 2.582832 -0.267362
C -4.396538 2.209741 -0.528375
C -2.526484 -1.800405 0.953113
C -3.877748 -1.409891 1.018683
C -4.885244 -2.218079 0.464771
C -4.559189 -3.428256 -0.161239
C -3.212729 -3.826592 -0.238063
C -2.210309 -3.014226 0.306912
C -0.625712 -1.799228 3.066693
C -2.064201 0.5582 2.528558
C 3.359226 -1.664566 -0.886457
C 4.438075 -2.363174 -0.304448
C 5.761621 -2.098497 -0.698406
C 6.026485 -1.15261 -1.699768
C 4.959787 -0.453325 -2.28841
C 3.64482 -0.693716 -1.870235
C 1.717098 -3.336135 0.77623
C 1.027541 -2.88564 -1.915567
C 3.222468 1.908129 0.758346
C 4.523243 1.457575 0.454325
C 5.451731 2.31303 -0.159252
C 5.099157 3.631822 -0.481263
C 3.805722 4.092496 -0.183762
C 2.877631 3.239243 0.429474
C 2.98747 -0.352482 2.501042
C 1.315744 1.881752 2.858346
H -1.230103 -1.196349 -2.221111
H 0.85493 0.128681 -2.890417
H 1.355387 2.261691 -1.526812
H -0.34545 2.877913 0.287215
H -5.302192 3.906503 0.490731
H -7.652689 3.191971 0.039078
H -8.102001 1.073508 -1.237891
H -6.194171 -0.319049 -2.060732
H -3.745752 -0.733525 -2.247254
H -2.84179 3.507054 0.301147
H -4.164479 -0.454529 1.478264
H -5.930715 -1.877114 0.508171
H -5.349042 -4.058435 -0.59776
H -2.942334 -4.772425 -0.732712
H -1.157437 -3.317635 0.215554
H -0.137805 -2.727817 2.720897
H 0.103982 -1.228958 3.675461
H -1.499934 -2.0597 3.69604
H -1.334726 1.153279 3.106403
H -2.813309 0.128084 3.222398
H -2.561742 1.231897 1.805114
H 4.259451 -3.125066 0.467859
H 6.589986 -2.646456 -0.223173
H 7.062237 -0.953524 -2.014306
H 5.155267 0.306588 -3.059934
H 2.821184 -0.100251 -2.292265
H 2.336549 -4.160878 0.371255
H 2.137446 -2.994014 1.739705
H 0.70028 -3.72833 0.96665
H -0.011542 -3.237385 -1.764785
H 1.046137 -2.231213 -2.806932
H 1.696895 -3.750708 -2.090713
H 4.824246 0.425217 0.682339
H 6.459846 1.936018 -0.390541
H 5.828908 4.300836 -0.962034
H 3.516797 5.126217 -0.428506
H 1.869889 3.619555 0.656199
H 3.570496 -1.026157 1.846343
H 3.684748 0.215153 3.14854
H 2.318551 -0.969661 3.131079
H 2.151964 2.3889 3.378833
H 0.762676 1.253574 3.583624
H 0.614534 2.636705 2.456231
