72

Zr -2.828271 0.28528 -0.951236
C -2.53258 1.918681 -2.611073
C -1.30573 1.153215 -2.698402
C -0.275451 1.17667 -1.769106
C 0.891335 0.253288 -1.773553
Si -5.832448 -0.231699 0.417223
C -7.368692 0.741088 -0.052248
C -6.118066 -1.537021 1.736162
C -3.172274 0.41651 1.478996
C -2.127687 1.364317 1.249763
C -2.670946 2.42401 0.476691
C -4.042466 2.133069 0.216909
C -4.381361 0.895392 0.86338
C -4.960851 -0.955984 -1.098463
C -3.897684 -1.921406 -1.029616
C -3.156675 -1.878855 -2.25347
C -3.7326 -0.878652 -3.075202
C -4.818814 -0.288531 -2.363421
B 1.753165 0.061525 -0.358312
C 0.967241 -0.741379 0.862587
C -0.280554 -1.347165 0.797629
F -1.075062 -1.19643 -0.349565
C -0.863641 -2.138251 1.797266
F -2.094154 -2.676192 1.647521
C -0.154534 -2.340926 2.987242
F -0.680227 -3.074423 3.971791
C 1.11787 -1.757566 3.126133
F 1.805875 -1.942694 4.255552
C 1.642777 -0.986769 2.077005
F 2.858176 -0.457218 2.276642
C 3.027452 -0.949764 -0.672133
C 4.378915 -0.700361 -0.373692
F 4.763588 0.445302 0.218639
C 5.414808 -1.611033 -0.651244
F 6.686222 -1.309985 -0.356123
C 5.11076 -2.853834 -1.225528
F 6.082738 -3.734056 -1.490951
C 3.773718 -3.165125 -1.514966
F 3.461302 -4.356187 -2.046449
C 2.777053 -2.221168 -1.221072
F 1.503869 -2.617406 -1.483506
C 2.185949 1.595727 0.0735
C 2.996461 2.3586 -0.79147
F 3.51691 1.79279 -1.902909
C 3.331078 3.704869 -0.58145
F 4.114897 4.362446 -1.444703
C 2.829894 4.367 0.550853
F 3.127052 5.652182 0.771752
C 2.01213 3.661946 1.443684
F 1.515865 4.275666 2.527336
C 1.715362 2.311281 1.184899
F 0.908902 1.725903 2.113001
H -2.457556 2.918533 -2.154052
H -3.188856 1.903892 -3.494811
H -1.236032 0.36365 -3.470693
H -0.24406 2.022764 -1.054265
H 1.646929 0.706123 -2.456066
H 0.610511 -0.705842 -2.250551
H -8.15456 0.066522 -0.448215
H -7.147395 1.499785 -0.829564
H -7.780647 1.269789 0.831063
H -6.48221 -1.073189 2.675121
H -5.183492 -2.086437 1.967378
H -6.873267 -2.275791 1.399565
H -3.072344 -0.521928 2.037882
H -1.093427 1.301273 1.609839
H -2.121283 3.310766 0.138385
H -4.724305 2.760012 -0.372451
H -3.683034 -2.584403 -0.182594
H -2.287349 -2.50049 -2.504382
H -3.391939 -0.59511 -4.078462
H -5.453174 0.526502 -2.735036
