78

Pd -0.030235 -0.191979 0.202794
P 2.209867 -0.731991 0.085553
P -2.323715 -0.35365 0.073101
S 0.115737 1.842331 1.513646
O 2.215549 -2.288442 -0.62327
O -2.586166 -1.886389 -0.637064
C -0.179558 -2.021567 -0.651587
C 0.967137 -2.795397 -0.928581
C -1.437378 -2.594111 -0.935894
C -1.561277 -3.872685 -1.507171
H -2.558998 -4.281626 -1.718821
C 0.301212 3.206487 0.410535
C 3.314252 0.169307 -1.153822
C 3.024801 -1.114955 1.747723
C 0.879715 -4.0773 -1.499389
H 1.796703 -4.646923 -1.704708
C -0.392164 -4.599167 -1.786949
H -0.474755 -5.601372 -2.234041
C -3.237149 0.728374 -1.176181
C 0.467178 4.507851 0.950572
H 0.478859 4.633048 2.044125
C 3.529708 1.622619 -0.700668
H 4.199833 1.691045 0.176229
H 2.578696 2.131052 -0.452153
H 4.004521 2.189064 -1.529143
C 0.60558 5.473192 -1.287849
H 0.724038 6.349949 -1.941709
C 0.290671 3.074578 -1.000782
H 0.16362 2.068916 -1.430258
C 0.441205 4.191252 -1.835092
H 0.429597 4.052212 -2.927837
C 0.616452 5.618468 0.111592
H 0.74466 6.616723 0.559154
C 4.212402 -2.081159 1.618866
H 5.08544 -1.613859 1.127897
H 3.935325 -2.990017 1.050887
H 4.530338 -2.392497 2.636392
C 2.49862 0.142741 -2.464119
H 3.057217 0.697625 -3.246465
H 1.510486 0.627301 -2.339428
H 2.33261 -0.891563 -2.823212
C 4.654874 -0.548024 -1.373861
H 5.164543 -0.093455 -2.249724
H 4.51351 -1.626396 -1.581883
H 5.332906 -0.436831 -0.506389
C 3.433129 0.202565 2.427912
H 3.676271 -0.002513 3.491928
H 2.612174 0.950737 2.399852
H 4.334854 0.645622 1.962656
C -3.171179 2.200343 -0.735857
H -3.525769 2.839711 -1.571404
H -2.141257 2.517682 -0.484615
H -3.817492 2.40457 0.137562
C -2.44287 0.537356 -2.485874
H -2.887492 1.18161 -3.27276
H -2.475138 -0.512517 -2.836247
H -1.380374 0.827101 -2.365271
C -4.689962 0.276953 -1.38894
H -5.329861 0.514961 -0.517755
H -4.755708 -0.808984 -1.595869
H -5.10978 0.818668 -2.262926
C 1.904584 -1.793164 2.564893
H 2.30853 -2.08496 3.557187
H 1.523081 -2.706735 2.066355
H 1.050737 -1.105642 2.725392
C -3.2175 -0.586452 1.723038
C -3.455068 0.786673 2.373865
H -3.753091 0.634939 3.432874
H -4.273526 1.34322 1.877315
H -2.537328 1.412347 2.360862
C -2.222029 -1.398701 2.578234
H -1.286679 -0.831367 2.753767
H -1.956663 -2.363359 2.100866
H -2.686616 -1.617864 3.56268
C -4.525544 -1.380053 1.578938
H -4.915453 -1.609558 2.593162
H -4.361823 -2.3367 1.047017
H -5.308111 -0.812493 1.043145
