44

Re 0.094129 -0.170558 -0.839014
O 1.590861 -2.574478 -2.103392
O -2.284649 -0.334371 -2.815575
O 1.548977 1.688903 -2.84057
N -0.966165 -1.304641 0.805082
N -1.597705 -3.078893 -0.598237
H -1.122851 -2.617574 -1.373943
H -2.043381 -3.980579 -0.749592
N 1.806279 -0.006659 0.592127
N 3.803121 0.559512 1.381799
N -0.835954 1.610878 0.125559
N -2.381194 3.096932 0.696864
C 1.001889 -1.686201 -1.627801
C -1.383237 -0.29247 -2.071802
C 0.997471 0.969424 -2.105945
C -0.999148 -0.743281 2.048633
H -0.484578 0.222184 2.14266
C -1.618314 -1.319987 3.148012
H -1.598922 -0.809849 4.119983
C -2.259246 -2.56506 2.971207
H -2.762704 -3.064001 3.81251
C -2.24879 -3.157788 1.718792
H -2.739881 -4.125633 1.543543
C -1.596964 -2.510235 0.628978
C 2.82527 0.858748 0.487113
H 2.902016 1.675623 -0.239623
C 2.155628 -0.900978 1.590627
H 1.509176 -1.737065 1.871998
C 3.394704 -0.555166 2.091059
H 4.013687 -1.005707 2.873221
C 5.065121 1.2698 1.549299
H 5.115043 2.099535 0.82179
H 5.915562 0.584645 1.368139
H 5.142348 1.682918 2.573592
C -2.130855 1.938464 0.03217
H -2.897112 1.373734 -0.510115
C -0.234698 2.602097 0.881393
H 0.833304 2.58507 1.116557
C -1.188445 3.532941 1.24339
H -1.11985 4.455445 1.828354
C -3.670794 3.769043 0.800039
H -3.616648 4.775274 0.341538
H -3.968994 3.867157 1.861602
H -4.43364 3.174258 0.266823
