44

Re -0.129289 -0.50319 -0.872565
O -2.772562 -0.238728 -2.457201
O 1.535189 -0.193547 -3.464468
O -0.164502 -3.579178 -1.234486
N -0.095913 1.699639 -0.528394
N -0.739338 3.774561 -0.074778
N -1.263916 -0.722947 1.047376
N -3.00301 -1.032299 2.395646
N 1.760285 -0.546287 0.350424
N 3.336475 1.280638 3.119042
H 2.692154 2.062325 3.216262
H 4.244527 1.380978 3.568439
C -1.762718 -0.360071 -1.880171
C 0.895542 -0.31257 -2.496257
C -0.152375 -2.420074 -1.106625
C -1.067526 2.456076 -0.004724
H -2.009869 2.088398 0.415024
C 0.895973 2.569339 -0.94901
H 1.810195 2.21068 -1.432789
C 0.50599 3.864273 -0.671236
H 0.993574 4.826488 -0.856754
C -1.565483 4.894595 0.356571
H -2.483317 4.50784 0.834395
H -1.851326 5.51949 -0.511878
H -1.01681 5.519396 1.087386
C -2.599764 -0.668981 1.14907
H -3.294703 -0.41711 0.339625
C -0.797431 -1.143915 2.281086
H 0.267057 -1.302025 2.476156
C -1.870799 -1.337047 3.128149
H -1.924282 -1.671372 4.168987
C -4.380348 -1.121463 2.864013
H -4.615599 -2.160564 3.165193
H -5.06235 -0.825532 2.046913
H -4.539131 -0.44804 3.728372
C 2.712487 -1.470176 0.067897
H 2.494688 -2.178333 -0.741951
C 3.917495 -1.513113 0.779083
H 4.667341 -2.274338 0.521588
C 4.160109 -0.596929 1.80161
H 5.104478 -0.623101 2.366366
C 3.173516 0.374436 2.109635
C 1.983749 0.34685 1.338204
H 1.182482 1.075218 1.531284
