25

Cu -0.34143 0.115104 -0.051939
C -3.008217 0.85815 -0.152412
C -0.610055 -2.523081 0.551741
C 0.782169 -2.487043 -0.068624
C 2.457706 -0.727659 -0.092873
C 2.107195 1.750833 0.113406
H 3.808539 2.899627 0.470077
H 2.337255 3.789501 0.273125
H 0.300104 2.566218 0.249647
H -1.677268 -1.624404 -0.944573
H -0.52124 -2.426052 1.654957
H -1.106737 -3.500101 0.350899
H 0.756071 -2.831732 -1.128148
H 1.494365 -3.138657 0.488848
H 3.250285 -2.614682 -0.33672
H 4.429493 -1.392211 0.002874
H 3.846708 0.75663 -0.319007
N -1.859066 1.22719 -0.323084
N -1.455812 -1.440571 0.05399
N 1.193821 -1.068077 -0.031637
N 3.469158 -1.623023 -0.251342
N 2.880806 0.598208 -0.02713
N 2.830007 2.900925 0.181518
N 0.808768 1.683442 0.125932
S -4.528917 0.437749 0.033693
