64

Rh -0.193544 0.808507 0.153314
Br -1.229354 0.084214 2.355793
N -2.800423 -0.572431 -0.999677
C -4.251555 -0.523679 -0.711328
C -4.502915 0.587468 0.318706
C -5.028738 -0.270177 -2.006713
C -4.547631 -1.946478 -0.118603
O -3.240213 -2.540909 0.081982
C -2.375452 -1.655596 -0.473576
N -1.030877 -2.048511 -0.398655
C 0.010342 -1.148441 -0.239698
N 1.117921 -1.955401 -0.209822
C 0.776592 -3.309086 -0.303066
C -0.582003 -3.371802 -0.412926
C 2.471883 -1.471276 -0.149409
C 3.191294 -1.36636 -1.360631
C 4.498531 -0.850948 -1.304748
C 5.086831 -0.453385 -0.090111
C 4.343437 -0.609368 1.094931
C 3.033741 -1.12259 1.098488
C 2.569587 -1.777692 -2.671563
C 6.471082 0.144177 -0.05628
C 2.263502 -1.294703 2.376536
C 1.128723 1.498399 -1.381663
C 1.818958 2.814738 -1.037196
C 1.674165 3.159879 0.458378
C 0.342453 2.728948 1.035124
C -0.917359 2.878399 0.432514
C -1.173826 3.542283 -0.910933
C -1.190064 2.518381 -2.06796
C -0.206777 1.38379 -1.872452
H -5.577355 0.628477 0.593121
H -3.891568 0.420075 1.228236
H -4.208879 1.568124 -0.10446
H -6.121174 -0.257565 -1.814433
H -4.741105 0.709059 -2.437332
H -4.812006 -1.054226 -2.759632
H -5.120091 -2.594795 -0.815348
H -5.061274 -1.916917 0.861942
H 1.535173 -4.096246 -0.274215
H -1.273134 -4.213712 -0.496994
H 5.069325 -0.751083 -2.241806
H 4.79667 -0.32506 2.058202
H 3.218272 -1.498453 -3.52277
H 2.39894 -2.873597 -2.719947
H 1.579374 -1.299394 -2.820257
H 7.051244 -0.111587 -0.96414
H 6.421105 1.252737 0.002895
H 7.04214 -0.199644 0.829166
H 2.899006 -1.079095 3.255675
H 1.37363 -0.627706 2.409054
H 1.867725 -2.326281 2.476685
H 1.822411 0.685481 -1.642927
H 1.417824 3.632334 -1.670683
H 2.895704 2.736775 -1.291528
H 1.844662 4.248316 0.634746
H 2.466274 2.6295 1.026784
H 0.343748 2.52226 2.119151
H -1.792473 2.741723 1.089445
H -0.414161 4.328254 -1.096822
H -2.149504 4.068596 -0.876285
H -1.018353 3.026676 -3.046723
H -2.196094 2.054438 -2.129968
H -0.442653 0.494637 -2.484421
