73

Pd 3.3e-05 -2e-05 1.4e-05
O 0.31874 -1.922384 0.621119
O -0.766464 -3.089191 -1.003426
N -1.678806 -0.522187 -1.175677
H -1.467394 -1.555943 -1.251491
C -2.974823 -0.369523 -0.461294
H -3.772317 -0.763668 -1.133707
C -3.318109 1.088236 -0.131073
H -3.322099 1.70539 -1.052883
H -2.509301 1.497824 0.5099
C -4.669378 1.189715 0.587181
H -4.885279 2.249559 0.836155
H -5.480474 0.86131 -0.101954
C -4.701454 0.320763 1.850451
H -3.962582 0.717217 2.582826
H -5.695286 0.382545 2.341314
C -4.351232 -1.135996 1.523388
H -5.149274 -1.567923 0.877881
H -4.333144 -1.751812 2.446551
C -3.001981 -1.241042 0.803007
H -2.777794 -2.292769 0.532025
H -2.185885 -0.90673 1.480185
C -1.604342 0.066838 -2.547817
H -1.559996 1.167118 -2.418482
C -2.814081 -0.298229 -3.417658
H -3.760032 0.141935 -3.046536
H -2.942578 -1.398876 -3.485157
H -2.655814 0.085202 -4.445102
C -0.303486 -0.394889 -3.20954
H 0.571099 -0.124066 -2.584069
H -0.185541 0.087458 -4.199556
H -0.294826 -1.495087 -3.349396
C -0.041388 -3.012459 0.008732
C 0.509852 -4.272283 0.664054
H 0.212163 -5.16451 0.085388
H 0.124872 -4.354059 1.700354
H 1.614393 -4.212804 0.731748
O -0.318675 1.922355 -0.621085
O 0.766337 3.089122 1.003626
N 1.678897 0.522138 1.175675
H 1.467442 1.555879 1.251551
C 2.974871 0.369554 0.461204
H 3.772403 0.763652 1.1336
C 3.318163 -1.088175 0.130844
H 3.32224 -1.705394 1.052611
H 2.509312 -1.497739 -0.51009
C 4.669378 -1.189574 -0.587521
H 4.885273 -2.249394 -0.836601
H 5.480523 -0.861216 0.101579
C 4.701351 -0.320512 -1.850719
H 3.962427 -0.716908 -2.583074
H 5.695148 -0.382245 -2.341662
C 4.351143 1.136215 -1.5235
H 5.149227 1.568086 -0.878006
H 4.332991 1.752117 -2.446605
C 3.001938 1.241183 -0.803022
H 2.777752 2.292885 -0.531937
H 2.185802 0.90693 -1.48018
C 1.604549 -0.066958 2.547793
H 1.56027 -1.167233 2.418406
C 2.814321 0.29816 3.417562
H 3.760276 -0.141924 3.046355
H 2.942746 1.398815 3.485089
H 2.656157 -0.085318 4.445004
C 0.303701 0.394648 3.209612
H -0.5709 0.123784 2.584183
H 0.185851 -0.087743 4.199618
H 0.294968 1.494841 3.349511
C 0.041225 3.012403 -0.008507
C -0.51039 4.272212 -0.66354
H -0.212368 5.164455 -0.085071
H -0.126093 4.35396 -1.700093
H -1.614978 4.212719 -0.730515
