77

Pd -6.5e-05 -3.1e-05 0.00029
O -2.024747 0.246978 0.179249
O -2.750732 -1.741723 -0.639156
N 0.132555 2.112146 -0.032149
H 1.147504 2.180555 0.255153
C -2.941721 -0.59369 -0.185391
C -4.401025 -0.091962 -0.016696
C -4.472687 1.306377 0.60986
H -5.531507 1.616645 0.727905
H -3.964833 2.058572 -0.024903
H -3.992185 1.327741 1.607672
C -5.132206 -1.114449 0.875952
H -6.20411 -0.845386 0.97448
H -4.692378 -1.14171 1.894547
H -5.056832 -2.129081 0.440029
C -5.036648 -0.080402 -1.422042
H -6.106859 0.206012 -1.358712
H -4.962916 -1.082118 -1.887605
H -4.526403 0.648252 -2.085383
C -0.690712 2.7435 1.044844
H -1.740571 2.438662 0.86467
C -0.596784 4.27477 1.044596
H -1.043704 4.734876 0.141885
H 0.457529 4.613106 1.12579
H -1.14598 4.674829 1.919775
C -0.250135 2.176297 2.396389
H -0.328124 1.07044 2.401139
H -0.894339 2.5733 3.205178
H 0.802736 2.444216 2.619094
C -0.007371 2.695862 -1.39832
H 0.161312 3.791798 -1.299158
C -1.400108 2.479939 -1.988628
H -2.197448 2.897849 -1.343781
H -1.60602 1.399196 -2.118364
H -1.467861 2.976938 -2.976487
C 1.091983 2.160316 -2.317436
H 2.097001 2.352532 -1.894177
H 1.029433 2.659865 -3.304118
H 0.985796 1.067887 -2.472322
O 2.024557 -0.247181 -0.178437
O 2.751015 1.741908 0.638634
N -0.132559 -2.112229 0.03258
H -1.147439 -2.180626 -0.25496
C 2.941716 0.593643 0.185312
C 4.400909 0.091906 0.015745
C 4.472057 -1.306988 -0.609615
H 5.530779 -1.617397 -0.728166
H 3.964636 -2.058583 0.026205
H 3.990829 -1.329226 -1.607059
C 5.131101 1.11368 -0.878534
H 6.202927 0.844617 -0.977925
H 4.690253 1.140053 -1.896713
H 5.056133 2.12868 -0.443389
C 5.037882 0.081671 1.420481
H 6.108085 -0.204588 1.356361
H 4.964379 1.08377 1.885251
H 4.528411 -0.64651 2.084936
C 0.691044 -2.743441 -1.044244
H 1.74083 -2.438527 -0.863756
C 0.59727 -4.274719 -1.044183
H 1.04406 -4.734882 -0.141439
H -0.456997 -4.613137 -1.125618
H 1.146666 -4.674646 -1.9193
C 0.250813 -2.176172 -2.395869
H 0.328553 -1.070294 -2.400427
H 0.8954 -2.572917 -3.204479
H -0.801919 -2.444288 -2.618988
C 0.007178 -2.695865 1.398772
H -0.161531 -3.791811 1.299713
C 1.399895 -2.479914 1.989138
H 2.197231 -2.898149 1.344486
H 1.605938 -1.399153 2.118509
H 1.467497 -2.9766 2.977159
C -1.092226 -2.160174 2.317739
H -2.097212 -2.352274 1.894341
H -1.029869 -2.659713 3.304434
H -0.985942 -1.067751 2.472607
