48

Fe -2.560919 -0.665179 0.046759
C -1.912057 -2.277225 -0.290357
O -1.49438 -3.333396 -0.540782
C -3.980255 -0.677502 -1.031731
O -4.89701 -0.694829 -1.74687
C -3.52198 -1.033022 1.493539
O -4.128899 -1.269687 2.456826
C -1.955726 1.230155 -0.660225
O -2.712318 2.1169 -1.346724
C -3.707683 2.828057 -0.621481
C -1.856913 1.124097 0.762003
C -0.973084 0.061013 1.188178
C 0.393028 -0.088964 0.515411
C 0.176032 -0.141294 -1.0187
C -1.254839 0.199593 -1.381287
C 1.297972 1.10142 0.93653
C 0.984307 2.535732 0.461794
C 2.362082 3.22952 0.516715
N 3.278924 2.130232 0.267577
C 2.725301 0.90868 0.463573
C 3.315737 -0.323769 0.259379
C 4.693627 -0.349042 -0.19946
O 5.420425 0.638152 -0.387826
O 5.149482 -1.619342 -0.424713
C 6.497039 -1.710215 -0.88157
C 2.494576 -1.58768 0.394806
C 1.119198 -1.353579 1.035892
H -4.287742 3.404697 -1.364542
H -3.257798 3.531031 0.113143
H -4.384737 2.124764 -0.087794
H -2.426981 1.763424 1.450183
H -0.972735 -0.163891 2.268808
H 0.879984 0.540412 -1.547402
H 0.410724 -1.155013 -1.401295
H -1.522646 0.125534 -2.448352
H 1.322597 1.105563 2.051669
H 0.61607 2.522032 -0.584753
H 0.222928 3.045411 1.080904
H 2.47397 4.029697 -0.244032
H 2.538613 3.6969 1.515533
H 4.268748 2.171924 -0.013088
H 6.706181 -2.787517 -1.013753
H 7.201806 -1.270024 -0.146012
H 6.633419 -1.172221 -1.842544
H 3.050538 -2.346639 0.983905
H 2.370268 -2.054081 -0.609737
H 1.234925 -1.245741 2.13672
H 0.476717 -2.241467 0.876331
