51

Fe -2.340055 -0.781475 -0.104849
C -4.111998 -0.750563 -0.289245
O -5.269902 -0.733881 -0.39789
C -2.10552 -1.878896 -1.480475
O -1.920717 -2.593501 -2.378831
C -2.20929 -1.950196 1.218168
O -2.172218 -2.711586 2.097245
C -0.350381 -0.135566 -0.221981
H 0.33711 -0.70917 -0.863063
C -1.249322 0.753439 -0.922729
H -1.198784 0.939142 -2.004663
C -2.254087 1.325586 -0.083345
O -3.231339 2.178639 -0.467761
C -3.46642 2.317515 -1.863529
H -2.609035 2.803196 -2.378376
H -3.660757 1.327166 -2.331644
H -4.361515 2.95662 -1.970472
C -2.243565 0.829136 1.267692
H -3.145054 1.073439 1.853582
C -0.937164 0.768597 2.032296
H -1.060188 0.090352 2.901098
H -0.709288 1.768916 2.465909
C 0.229364 0.265592 1.137975
C 0.936701 -0.928458 1.811923
H 1.363128 -0.563185 2.771932
H 0.197145 -1.708116 2.075415
C 2.041361 -1.535572 0.951053
H 2.664734 -2.213861 1.570002
H 1.597506 -2.203535 0.177659
C 2.920305 -0.496784 0.292004
C 4.123821 -0.936873 -0.393056
O 4.966892 -0.222078 -0.965544
O 4.273738 -2.295612 -0.367385
C 5.435245 -2.795258 -1.026379
H 6.36184 -2.381478 -0.577648
H 5.433171 -2.527976 -2.103326
H 5.408352 -3.893536 -0.905402
C 2.59145 0.862622 0.295573
C 1.323078 1.37501 0.975133
H 1.631173 1.629363 2.017508
C 0.848427 2.691527 0.341502
H 0.504183 2.513944 -0.699173
H -0.024411 3.087272 0.898516
C 1.992834 3.704107 0.323272
H 1.657736 4.68779 -0.063596
H 2.364391 3.870195 1.357806
C 3.117392 3.167521 -0.555008
H 2.817 3.264622 -1.628237
H 4.040035 3.774387 -0.435945
N 3.429603 1.785728 -0.247709
H 4.260718 1.341955 -0.691596
