21

Mo -1.167791 -7.2e-05 3.7e-05
Cl -0.521656 -1.3436 -1.838465
Cl -0.522613 1.344375 1.83776
S 1.055505 -1.29808 1.224359
S 1.055028 1.298587 -1.223765
O -2.174761 -1.110915 0.79484
O -2.175777 1.109595 -0.795102
C 2.446117 -0.219261 0.730377
H 2.375711 0.647644 1.417026
H 3.386819 -0.757489 0.971479
C 2.445532 0.218783 -0.731578
H 2.373705 -0.648022 -1.418192
H 3.386326 0.756429 -0.973628
C 1.478518 -2.840708 0.361854
H 0.688939 -3.563977 0.640288
H 2.460027 -3.212108 0.714896
H 1.456425 -2.709369 -0.736631
C 1.479526 2.840337 -0.360448
H 0.68767 3.562942 -0.634089
H 2.458897 3.213704 -0.717356
H 1.462882 2.707637 0.737985
