27

Mo -8.5e-05 -1.183859 4.4e-05
Cl 1.123259 -0.551808 1.987688
S 1.427323 1.03045 -1.057749
C 0.311354 2.430358 -0.697243
H 0.887529 3.365259 -0.860712
H -0.461423 2.376081 -1.489352
C 2.878808 1.434939 -0.010637
H 3.23752 2.435709 -0.329796
H 2.548776 1.478688 1.046654
O 1.201941 -2.189947 -0.653248
C 3.943583 0.3605 -0.197156
H 4.833356 0.605697 0.416344
H 4.264786 0.281875 -1.254883
H 3.5664 -0.628965 0.128141
Cl -1.123043 -0.551817 -1.987894
C -0.311242 2.4305 0.696895
S -1.427179 1.03069 1.057767
O -1.20243 -2.189547 0.653373
C -2.878797 1.435038 0.010737
H -3.237437 2.435874 0.329768
H -2.548761 1.478596 -1.046541
C -3.94353 0.360623 0.197434
H -4.833473 0.605917 -0.415784
H -4.264466 0.281888 1.255237
H -3.566466 -0.628825 -0.128048
H -0.887417 3.365439 0.860155
H 0.461548 2.376446 1.489009
