67

Ti 0.006494 0.504111 -0.237993
N -1.093829 1.774402 -0.486213
N 0.922763 1.098821 1.839353
N -0.911694 -0.319029 1.772236
N 1.22862 -1.163799 1.325264
C 1.84306 -0.033996 2.009316
C -0.352012 0.819652 2.501637
C -0.055622 -1.499749 1.929135
C -1.971787 2.878582 -0.763719
C -2.24269 2.935329 -2.284415
C -1.30034 4.196661 -0.314736
C -3.308121 2.698608 -0.007907
C 1.495802 2.401016 2.157628
C -2.325404 -0.561342 2.057977
C 2.116664 -2.302168 1.129746
C 1.767643 1.284661 -1.286266
C 2.959842 0.430222 -1.247215
C 4.086923 0.740265 -0.432721
C 5.186574 -0.123811 -0.324112
C 5.217762 -1.334029 -1.037857
C 4.133845 -1.647247 -1.879479
C 3.033647 -0.787998 -1.981788
C -0.649578 -1.111841 -1.566361
C -1.8979 -1.775828 -1.168981
C -1.904565 -3.066488 -0.569326
C -3.086214 -3.659296 -0.096458
C -4.316674 -2.993329 -0.21825
C -4.341373 -1.731112 -0.843271
C -3.162529 -1.137086 -1.305093
H 1.248883 1.267033 -2.270787
H 1.949831 2.338156 -0.997922
H -0.752237 -0.514276 -2.496659
H 0.205795 -1.814108 -1.655638
H 2.036113 -0.241838 3.100596
H 2.8026 0.201552 1.508539
H -1.022465 1.689363 2.370916
H -0.224012 0.599906 3.599416
H 0.044385 -1.794661 3.012895
H -0.518477 -2.336471 1.370508
H -2.904805 3.786235 -2.549077
H -2.725022 1.997075 -2.623972
H -1.28785 3.044699 -2.836102
H -1.931936 5.079349 -0.548582
H -1.122291 4.184977 0.780895
H -0.322056 4.317724 -0.821127
H -4.017427 3.522298 -0.233263
H -3.13483 2.690596 1.088537
H -3.78361 1.737581 -0.287284
H 0.770553 3.189355 1.881065
H 1.755153 2.498723 3.238132
H 2.410791 2.550841 1.555248
H -2.683478 -1.416239 1.456403
H -2.495263 -0.777029 3.139076
H -2.905516 0.331949 1.763102
H 1.612366 -3.049378 0.486823
H 2.401017 -2.794615 2.091461
H 3.034455 -1.970338 0.608537
H 4.104301 1.704711 0.102735
H 6.0383 0.159788 0.314777
H 6.081951 -2.010251 -0.959002
H 4.148496 -2.578135 -2.468534
H 2.199519 -1.0525 -2.65069
H -0.954652 -3.62376 -0.502696
H -3.045436 -4.661043 0.360602
H -5.244647 -3.456616 0.148729
H -5.298789 -1.200152 -0.967585
H -3.195321 -0.14174 -1.77361
