84

Ti 0.357348 -0.000952 -0.714783
N -1.317451 -0.002818 -0.350918
N 1.352582 1.194463 1.08368
N 1.317613 -1.148948 1.139164
N 2.866677 -0.037529 -0.256862
C 2.725819 1.182008 0.538702
C 1.210039 0.044141 1.984338
C 2.686283 -1.215087 0.591476
C -2.680053 -0.003976 -0.167846
C -3.398215 -1.245267 -0.076161
C -4.763256 -1.217164 0.25105
C -5.443715 -0.00682 0.445428
C -4.766034 1.204765 0.249026
C -3.40105 1.235586 -0.078224
C 0.937993 2.509731 1.730871
C -0.470613 2.335294 2.328148
C 1.921644 2.909502 2.851871
C 0.905557 3.621363 0.672681
C 0.849322 -2.420109 1.833699
C -0.56887 -2.180384 2.383407
C 1.790069 -2.794147 2.999252
C 0.819119 -3.575254 0.821844
C 4.090602 -0.067092 -1.148436
C 5.375165 0.194108 -0.332421
C 3.940333 0.998814 -2.244766
C 4.189812 -1.440695 -1.834448
C -2.708311 -2.540308 -0.47104
C -2.838773 -2.743601 -1.992795
C -3.188293 -3.776115 0.297748
C -2.715234 2.531969 -0.475663
C -2.858146 2.73894 -1.995809
C -3.190842 3.765253 0.300183
Cl 0.594804 1.780139 -2.159987
Cl 0.627304 -1.807687 -2.134711
H 3.474914 1.231084 1.370328
H 2.85261 2.055066 -0.122119
H 0.210878 0.069009 2.439094
H 1.986004 0.051986 2.792856
H 2.763401 -2.118105 -0.032349
H 3.443509 -1.264329 1.417968
H -5.313496 -2.166387 0.339239
H -6.511458 -0.007831 0.712723
H -5.318581 2.152853 0.335381
H -0.912753 3.331088 2.517873
H -0.457746 1.798829 3.297468
H -1.132444 1.791636 1.627606
H 1.541899 3.819283 3.356793
H 2.022857 2.124123 3.627724
H 2.930269 3.150044 2.461369
H 0.558827 4.557891 1.150825
H 0.229356 3.36663 -0.162894
H 1.905504 3.826044 0.242674
H -1.038729 -3.153306 2.619344
H -0.565756 -1.590178 3.321097
H -1.200211 -1.661158 1.638145
H 1.381917 -3.681664 3.521434
H 2.807947 -3.05954 2.651135
H 1.875349 -1.98399 3.751181
H 0.375802 -4.465951 1.30717
H 1.832963 -3.862717 0.48037
H 0.225134 -3.315239 -0.073163
H 6.261916 0.076452 -0.985988
H 5.487074 -0.522852 0.506746
H 5.408979 1.222332 0.080508
H 4.82924 0.965354 -2.904719
H 3.030039 0.818848 -2.845371
H 3.874377 2.027617 -1.839962
H 4.949265 -1.38438 -2.637599
H 4.515154 -2.242143 -1.141102
H 3.217253 -1.722083 -2.284077
H -1.626886 -2.399443 -0.274769
H -2.27492 -3.641739 -2.319506
H -3.903218 -2.870068 -2.28199
H -2.426873 -1.874405 -2.54025
H -2.550819 -4.651535 0.056421
H -4.229203 -4.053286 0.02951
H -3.157926 -3.618114 1.394918
H -1.631916 2.390763 -0.289223
H -2.300428 3.640341 -2.324265
H -3.925236 2.862133 -2.276578
H -2.446509 1.873024 -2.548558
H -2.554469 4.641571 0.058949
H -4.232996 4.043464 0.037978
H -3.155414 3.603339 1.396604
