38

Cr 2.158278 -0.070303 -0.005807
O 2.352515 2.046959 -2.12129
O 2.471453 2.065171 2.077015
O 5.146258 -0.30192 -0.086344
C 2.280732 1.22451 -1.293799
C 0.527826 -0.916455 -1.194458
H 0.11457 -0.542122 -2.14201
C 1.609491 -1.841523 -1.207484
H 2.049985 -2.164574 -2.159855
C 2.176497 -2.264007 0.027513
H 3.052585 -2.928079 0.02548
C 1.643995 -1.804256 1.263522
H 2.110348 -2.098874 2.2128
C 0.561341 -0.87891 1.252493
H 0.173682 -0.476693 2.19942
C -0.054353 -0.465526 0.031054
C -1.230088 0.461898 0.031597
C -2.600213 -0.006267 0.009833
C -3.6397 1.009678 -0.005986
C -5.015217 0.638149 -0.03521
H -5.772731 1.436776 -0.048084
C -5.384345 -0.692575 -0.045583
H -6.445298 -0.983223 -0.068223
C -4.380496 -1.688595 -0.022594
H -4.682292 -2.747678 -0.024939
C -3.016324 -1.393806 0.005847
C -2.06834 -2.569871 0.037069
H -2.644974 -3.514301 0.052931
H -1.410488 -2.564324 0.927403
H -1.398005 -2.602806 -0.843484
C -3.301305 2.393801 0.009331
H -4.119806 3.130122 -0.002718
C -1.982439 2.803344 0.038931
H -1.721212 3.871738 0.051723
C -0.956363 1.830843 0.047708
H 0.095937 2.146155 0.063352
C 2.352859 1.235176 1.262361
C 3.982646 -0.201698 -0.055391
