38

Cr -2.009196 -0.208648 -0.000323
F -3.238402 2.781132 5.9e-05
O -2.118187 -2.353741 2.093476
O -2.116399 -2.354223 -2.093712
O -5.009062 -0.160459 -0.001935
C -2.08093 -1.51981 1.275865
C -2.079794 -1.519988 -1.27639
C -0.469766 0.724398 1.224441
H -0.04754 0.363714 2.17312
C -1.610847 1.578424 1.241758
H -2.099621 1.879555 2.176955
C -2.154226 1.994244 0.000284
C -1.609775 1.579196 -1.240995
H -2.097715 1.88097 -2.176421
C -0.468756 0.725134 -1.223237
H -0.045733 0.364989 -2.171764
C 0.162253 0.342603 0.000761
C 1.400406 -0.49986 0.000893
C 2.733153 0.066316 0.000253
C 3.843123 -0.872298 -0.000256
C 3.604997 -2.277242 0.000224
H 4.4745 -2.95266 -0.00014
C 2.318864 -2.781062 0.001158
H 2.135208 -3.865536 0.001553
C 1.225493 -1.884872 0.001399
H 0.19871 -2.275554 0.001814
C 5.188623 -0.402762 -0.001171
H 6.001743 -1.144783 -0.001596
C 5.461076 0.951079 -0.001447
H 6.498564 1.317369 -0.002145
C 4.387922 1.872241 -0.000642
H 4.612791 2.950263 -0.000631
C 3.04817 1.480181 0.000243
C 2.017753 2.585321 0.00137
H 1.354936 2.551107 0.887525
H 1.354594 2.552602 -0.884595
H 2.524745 3.568974 0.002072
C -3.842685 -0.185618 -0.001374
