41

Cr 1.997982 -0.241092 2.4e-05
O 2.076219 -2.380214 -2.100694
O 4.99463 -0.24037 5.4e-05
O 2.075713 -2.379907 2.10108
C 2.048995 -1.548824 -1.278886
C 3.825277 -0.255463 4.1e-05
C 1.612896 1.553855 1.227755
H 2.086515 1.822531 2.181896
C 2.212936 1.968624 -0.000108
C 3.436428 2.844204 -0.000137
H 3.137483 3.91353 -0.000199
H 4.060762 2.665035 -0.895885
H 4.060729 2.66513 0.895654
C 1.612905 1.553724 -1.227917
H 2.086539 1.822254 -2.182094
C 0.460396 0.719211 -1.219665
H 0.035188 0.366364 -2.170169
C -0.17465 0.33391 -9e-06
C -1.422547 -0.493367 -3.2e-05
C -2.749138 0.087373 -1.8e-05
C -3.869953 -0.838313 -3.8e-05
C -3.648019 -2.245887 -8.9e-05
H -4.525199 -2.911347 -0.000101
C -2.36757 -2.763994 -0.000123
H -2.196188 -3.850517 -0.000166
C -1.263931 -1.880428 -8.9e-05
H -0.24153 -2.282405 -0.00011
C -5.210047 -0.35342 -1.2e-05
H -6.031547 -1.086205 -1.7e-05
C -5.46718 1.003405 1.4e-05
H -6.500482 1.381444 2.5e-05
C -4.383523 1.912216 8e-06
H -4.595993 2.992783 3e-06
C -3.048323 1.504868 -2e-06
C -2.005542 2.598307 3.5e-05
H -1.342121 2.556375 -0.885266
H -1.342461 2.556523 0.885613
H -2.501783 3.587522 -0.000126
C 0.460354 0.719395 1.219591
H 0.035155 0.366641 2.170135
C 2.048716 -1.548647 1.279133
