30

Pd -1.042227 1.015861 0.079025
Cl -2.814823 2.260478 0.83365
Cl 0.381314 2.77864 0.381181
N -2.181757 -0.652196 -0.244158
C -1.46769 -1.724883 -0.716777
C -2.088636 -2.95888 -0.98212
C -3.463942 -3.087802 -0.758642
C -4.179177 -1.978568 -0.277361
C -3.505244 -0.775176 -0.030047
C -0.057356 -1.464917 -0.908292
N 0.383988 -0.266208 -0.615108
C 1.762357 0.055802 -0.754727
C 2.76527 -0.557584 0.036106
C 4.106186 -0.176848 -0.147222
C 4.453898 0.789174 -1.099543
C 3.453513 1.406278 -1.864851
C 2.111611 1.058416 -1.678328
C 2.43192 -1.579423 1.10298
F 1.389952 -1.196844 1.873468
F 3.479802 -1.813114 1.919618
F 2.090727 -2.787856 0.553862
H -1.485012 -3.798601 -1.355243
H -3.973629 -4.042114 -0.956239
H -5.260631 -2.035862 -0.088974
H -3.993987 0.139002 0.350525
H 0.619295 -2.249165 -1.284237
H 4.878004 -0.641279 0.48116
H 5.508387 1.073164 -1.229057
H 3.714041 2.182402 -2.599329
H 1.309436 1.553473 -2.240606
