45

Ni 0.021305 -0.050021 0.354092
Cl -0.312047 -0.367156 2.584254
O 1.208551 2.322274 2.00386
N 0.974439 1.169707 -0.806257
N 1.679072 -0.923093 0.45152
N -1.143042 -1.514095 -0.538385
N -1.61114 0.881449 0.359098
C 2.708105 -0.331173 -0.227639
C 3.997726 -0.890214 -0.202317
H 4.817495 -0.400949 -0.745147
C 4.221564 -2.067617 0.517186
H 5.22508 -2.516108 0.548269
C 3.148964 -2.663083 1.202823
H 3.282364 -3.584351 1.786743
C 1.891023 -2.058117 1.155249
H 1.026273 -2.438604 1.717525
C 2.306482 0.875316 -0.946096
C 3.160117 1.674355 -1.723868
H 4.223836 1.414951 -1.812161
C 2.645085 2.797165 -2.377509
H 3.298067 3.438195 -2.986666
C 1.276513 3.082349 -2.241659
H 0.819911 3.947784 -2.742084
C 0.480746 2.247968 -1.454296
H -0.592285 2.448495 -1.333189
C -2.704394 0.235572 -0.138369
C -3.966342 0.854416 -0.093407
H -4.846831 0.335231 -0.494503
C -4.090629 2.125859 0.476469
H -5.073305 2.617793 0.519694
C -2.951666 2.753876 1.005242
H -3.010823 3.742949 1.480416
C -1.719844 2.096164 0.93929
H -0.781822 2.503327 1.367455
C -2.436508 -1.110137 -0.67443
C -3.405294 -1.936199 -1.271649
H -4.444921 -1.596067 -1.372283
C -3.027546 -3.201054 -1.73718
H -3.768884 -3.863758 -2.206682
C -1.69141 -3.606457 -1.594565
H -1.35144 -4.590622 -1.94685
C -0.784293 -2.72827 -0.989388
H 0.273476 -3.007671 -0.857171
H 1.419501 2.912599 2.750722
H 0.878487 1.498765 2.442973
