41

Ni 2e-06 -0.003516 0.055759
I 1.1e-05 -2.606631 -0.106227
O -3.58647 1.876637 0.012329
O 3.586455 1.876698 0.012405
N -1.940953 0.310484 0.085614
N 1.940969 0.310502 0.085412
C -3.332116 -1.242034 -1.251677
H -2.490973 -1.950593 -1.377931
H -3.323223 -0.527217 -2.099158
H -4.285104 -1.809169 -1.277481
C -3.256496 -1.450385 1.282099
H -2.470778 -2.225272 1.198911
H -4.24696 -1.948912 1.319227
H -3.105135 -0.894885 2.229039
C -3.198043 -0.498864 0.084398
C -4.282836 0.61838 0.217603
H -5.084385 0.541731 -0.542214
H -4.73797 0.64932 1.229441
C -2.283847 1.58385 0.020977
C -1.215075 2.558495 -0.03582
C -1.228409 3.964712 -0.102136
H -2.181424 4.514554 -0.126708
C -2.1e-05 4.654535 -0.136087
H -2.7e-05 5.753141 -0.188773
C 1.228376 3.964726 -0.102126
H 2.181385 4.51458 -0.126684
C 1.215057 2.558509 -0.035817
C -4e-06 1.847801 -0.002361
C 2.283844 1.583875 0.020926
C 4.282904 0.618411 0.217206
H 4.738574 0.649249 1.2288
H 5.084063 0.54184 -0.543037
C 3.198043 -0.49885 0.084397
C 3.332122 -1.242483 -1.251416
H 2.49107 -1.9512 -1.377383
H 4.285188 -1.809495 -1.277065
H 3.32309 -0.527968 -2.099148
C 3.256411 -1.44998 1.282422
H 3.105237 -0.894131 2.229188
H 4.246772 -1.948707 1.319644
H 2.470524 -2.224731 1.199542
