59

Co 3.3e-05 -1e-06 3.1e-05
N 1.267582 1.320202 -0.642969
N -1.417536 1.251491 -0.641966
H -1.447878 0.853811 -1.601555
N -1.267534 -1.320209 0.643016
N 1.417602 -1.251532 0.641994
H 1.447944 -0.853849 1.601583
N -0.144042 -0.716302 -1.842156
N -0.631286 -1.817335 -2.026428
N -1.09349 -2.866334 -2.236916
N 0.144302 0.716236 1.842212
N 0.631004 1.817519 2.026402
N 1.09269 2.866759 2.236825
C 0.568227 2.384121 -1.372336
H 0.457398 2.044131 -2.426288
H 1.131151 3.33564 -1.37998
C -0.798328 2.586653 -0.74056
H -0.701741 3.031291 0.268156
H -1.405821 3.275954 -1.362179
C -2.810994 1.16858 -0.094908
C -3.274889 -0.289472 -0.290057
H -4.345625 -0.340755 -0.01584
H -3.245348 -0.55792 -1.37342
C -2.549636 -1.383251 0.449735
C -0.568156 -2.38408 1.372417
H -1.131108 -3.33558 1.380235
H -0.457227 -2.043974 2.426321
C 0.798352 -2.586673 0.740559
H 1.40585 -3.276032 1.36211
H 0.701682 -3.031254 -0.268176
C 2.811066 -1.168629 0.094962
C 3.274926 0.289443 0.290084
H 3.245225 0.557918 1.373435
H 4.345692 0.34072 0.015994
C 2.549713 1.383154 -0.449848
C -3.745629 2.06747 -0.929042
H -3.52234 3.140873 -0.779181
H -4.795932 1.909902 -0.616999
H -3.677759 1.837324 -2.01244
C -2.865642 1.57146 1.382086
H -2.187768 0.953497 1.99933
H -3.90357 1.464507 1.752378
H -2.580083 2.632455 1.521621
C -3.37725 -2.560782 0.896985
H -2.987299 -3.504683 0.463636
H -4.428621 -2.450404 0.579607
H -3.362398 -2.665963 2.001956
C 3.745689 -2.067477 0.929158
H 3.677811 -1.837268 2.012541
H 4.795996 -1.909938 0.617113
H 3.522392 -3.140887 0.779358
C 2.865754 -1.571557 -1.382016
H 2.580279 -2.632581 -1.521508
H 3.903676 -1.464538 -1.752304
H 2.187827 -0.953676 -1.999284
C 3.377327 2.560596 -0.89735
H 3.361581 2.666283 -2.002252
H 4.428924 2.449818 -0.580868
H 2.987966 3.504414 -0.46326
