43

C -3.138125 -0.615942 0.845799
C -3.071332 -0.434532 -0.580392
C -4.252741 -0.241439 -1.319523
C -5.507763 -0.304296 -0.702873
C -5.604759 -0.557422 0.674969
C -4.434896 -0.700762 1.421003
C -2.047224 -0.571891 1.816343
C 0.094281 0.048536 2.72965
C 1.573675 -0.178526 2.415517
H -0.171364 -0.512862 3.652052
H -0.06153 1.134795 2.918691
H -4.1871 -0.070389 -2.402303
H -6.415599 -0.167492 -1.30953
H -6.586273 -0.622849 1.165653
H -4.503485 -0.852506 2.509639
H -2.37611 -0.691079 2.869332
H 1.796535 -1.257087 2.262041
H 2.177991 0.223155 3.256937
I -0.720905 2.547448 0.134337
Ni -1.1e-05 -1.5e-05 5e-06
N -0.790861 -0.299726 1.614986
O -1.864744 -0.527003 -1.196908
O 1.865086 0.527166 1.197166
I 0.720519 -2.547585 -0.134598
N 0.791057 0.299774 -1.614844
C -1.573396 0.178744 -2.415247
C 3.071645 0.434624 0.580605
C 2.047438 0.571946 -1.816128
C -0.094053 -0.048384 -2.729534
H -1.796194 1.257309 -2.261703
H -2.177794 -0.222863 -3.256643
C 3.138364 0.615996 -0.845597
C 4.253085 0.241531 1.319687
H 2.376339 0.691174 -2.869107
H 0.171586 0.51308 -3.651897
H 0.061701 -1.134638 -2.918648
C 4.435112 0.700799 -1.420855
C 5.508077 0.304357 0.702977
H 4.187495 0.070513 2.402474
C 5.60501 0.557457 -0.674874
H 4.503655 0.852524 -2.509497
H 6.41594 0.167557 1.309593
H 6.586501 0.622865 -1.165606
