72

W -0.198706 -0.699233 -0.296164
Se -2.00197 2.688228 -0.190348
Cl -0.449059 -1.612967 -2.537092
O -1.566417 -3.125053 1.157247
N 1.649311 -2.02168 -0.16496
N 2.849601 -1.463368 0.173143
N 1.297929 0.704214 -1.260601
N 2.528319 0.875486 -0.694607
N 0.664036 -0.030148 1.615018
N 1.984867 0.307551 1.709318
C -1.483091 0.906839 -0.196057
C -2.185244 -0.231536 -0.020568
C -3.559302 -0.671561 0.145069
C -4.000192 -1.889664 -0.424611
C -5.336121 -2.286996 -0.294114
C -6.246114 -1.488601 0.418903
C -5.819607 -0.276186 0.987243
C -4.490205 0.137623 0.841714
C -1.075753 -2.230414 0.570886
C 3.833464 -2.402959 0.142398
C 3.237674 -3.612768 -0.229345
C 1.865855 -3.341292 -0.412191
C 5.263937 -2.105884 0.456781
C 0.800742 -4.306946 -0.813316
C 3.267601 1.76157 -1.418042
C 2.473441 2.174846 -2.493118
C 1.246067 1.485714 -2.368642
C 4.6638 2.156755 -1.059765
C 0.062637 1.581481 -3.275724
C 2.265235 0.778345 2.958187
C 1.071146 0.754595 3.684542
C 0.087158 0.23312 2.817252
C 3.630212 1.211714 3.382874
C -1.36056 0.019636 3.104209
C -0.284848 3.713135 -0.290536
C 0.570616 3.483418 0.946559
C -0.680988 5.173707 -0.495783
B 2.94159 0.035139 0.530271
H 4.077112 0.314791 0.852892
H -3.281021 -2.501122 -0.988508
H -5.671262 -3.230348 -0.751147
H -7.293695 -1.80877 0.526982
H -6.531877 0.354887 1.540333
H -4.156367 1.094228 1.272729
H 3.736265 -4.578718 -0.358466
H 5.867724 -3.026321 0.353638
H 5.686218 -1.340078 -0.225284
H 5.389668 -1.726265 1.491266
H 1.263678 -5.208241 -1.257028
H 0.115516 -3.847673 -1.552841
H 0.192063 -4.627543 0.056037
H 2.749371 2.885056 -3.279365
H 5.03417 2.911614 -1.77788
H 4.722453 2.592488 -0.041484
H 5.358762 1.292523 -1.083911
H 0.25059 2.338983 -4.059312
H -0.856958 1.863501 -2.723981
H -0.144099 0.601071 -3.746474
H 0.927769 1.066882 4.723831
H 3.597305 1.57967 4.425059
H 4.022485 2.02779 2.742174
H 4.36273 0.380058 3.335316
H -1.546114 0.108111 4.190853
H -1.985832 0.775973 2.586616
H -1.703846 -0.975498 2.763346
H 0.236207 3.331949 -1.188011
H 0.817503 2.414925 1.070222
H 0.056879 3.830551 1.866221
H 1.525627 4.044291 0.850215
H -1.274278 5.319819 -1.420496
H -1.272538 5.560471 0.360836
H 0.232636 5.799044 -0.575148
