35

Pt -0.495017 -0.603781 -0.09201
Cl -1.680607 -2.455862 -0.872707
S 1.441489 -2.085662 -0.202562
N 0.405669 1.062248 0.643575
O 1.991002 2.357393 -1.233595
C 1.065703 -3.277117 1.126454
H 0.118171 -3.75152 0.806341
H 0.905985 -2.760009 2.091269
H 1.878245 -4.025811 1.198783
C 2.845776 -1.167264 0.535383
H 3.494881 -1.920391 1.026175
H 3.417925 -0.767491 -0.324781
C 2.49067 -0.04873 1.514893
H 3.434716 0.278645 1.995866
H 1.833087 -0.43065 2.32325
C 1.826014 1.211316 0.924514
H 1.938488 2.010012 1.695253
C -0.384364 2.102285 0.806639
H 0.025833 3.053773 1.192439
C -1.76977 1.928256 0.47433
C -2.083591 0.614932 -0.005449
C -3.419729 0.3426 -0.346656
H -3.68623 -0.658985 -0.71547
C -4.400187 1.34259 -0.216857
H -5.442376 1.112258 -0.490594
C -4.079607 2.632279 0.254061
H -4.863758 3.398536 0.345287
C -2.759198 2.929473 0.602668
H -2.485724 3.931047 0.97152
C 2.540249 1.796074 -0.312134
O 3.884571 1.664449 -0.192585
C 4.652462 2.251076 -1.256815
H 5.711957 2.072639 -1.002839
H 4.446925 3.337227 -1.333776
H 4.39883 1.778763 -2.226669
