28

Re -0.869699 3.3e-05 0.085033
C -2.100626 -1.360801 0.682133
O -2.828052 -2.202215 1.037154
C -1.719008 2.5e-05 -1.632801
O -2.178491 -0.000149 -2.711629
C -2.100591 1.360927 0.682072
O -2.828008 2.20233 1.037139
C 2.328579 -4.3e-05 0.557744
H 3.416094 -7.5e-05 0.73562
O 0.314679 9.1e-05 1.904459
C 1.600975 1.3e-05 1.97192
O 2.32496 7.9e-05 2.957552
N 0.696627 -1.445666 -0.507524
C 0.683023 -2.620959 -1.162291
H -0.269487 -3.029931 -1.517239
N 1.992967 -1.19264 -0.206134
C 1.99287 -3.135716 -1.27242
H 2.305303 -4.073453 -1.741486
C 2.807917 -2.192829 -0.64892
H 3.889387 -2.156511 -0.480238
N 0.69671 1.445616 -0.50759
C 0.683168 2.620855 -1.162454
H -0.26932 3.029842 -1.517442
N 1.993036 1.192547 -0.206179
C 1.993042 3.135542 -1.272611
H 2.305523 4.073229 -1.741744
C 2.80804 2.192658 -0.649045
H 3.889507 2.156298 -0.480357
