61

Re 0.565315 -0.213441 -0.501771
N 2.66734 -0.3344 -0.239401
P -1.811454 -0.03338 0.058768
S 0.61385 -2.441639 0.155765
O 0.178325 -0.339568 -2.161704
O 0.75032 1.91079 -0.707591
O 0.584126 0.393078 1.472082
C 1.786972 2.638175 -0.429009
C 1.6525 4.061226 -0.50447
C 2.700825 4.910358 -0.182118
C 3.961212 4.397815 0.224229
C 4.135898 3.026123 0.283104
C 3.083841 2.109488 -0.040148
C 3.426278 0.727616 -0.00977
C 3.241808 -1.643411 -0.208661
C 4.615294 -1.891754 -0.408816
C 5.119902 -3.196927 -0.335173
C 4.255013 -4.271827 -0.068283
C 2.883494 -4.039734 0.097897
C 2.361279 -2.735782 0.007007
C -0.421843 0.888026 2.176532
C -0.221354 1.537407 3.419425
C -1.317641 2.045483 4.123851
C -2.629738 1.936758 3.61877
C -2.844183 1.301957 2.387746
C -1.753267 0.770615 1.677401
C -2.888734 0.988727 -1.013175
C -4.238248 0.655313 -1.243596
C -5.038308 1.496925 -2.032181
C -4.495778 2.664113 -2.591857
C -3.148732 2.99209 -2.363624
C -2.339873 2.159662 -1.577785
C -2.68209 -1.635467 0.22595
C -2.765036 -2.461344 -0.916231
C -3.372466 -3.720345 -0.825254
C -3.886727 -4.167927 0.403557
C -3.789438 -3.354624 1.542852
C -3.186132 -2.089737 1.458732
H 0.670859 4.452594 -0.807792
H 2.549132 5.99985 -0.237826
H 4.784306 5.079572 0.480667
H 5.110233 2.606562 0.581475
H 4.481865 0.526418 0.252953
H 5.299499 -1.065772 -0.650876
H 6.19278 -3.373908 -0.501046
H 4.647862 -5.298136 -0.012012
H 2.190578 -4.874212 0.28436
H 0.805002 1.6319 3.801987
H -1.148425 2.548806 5.088592
H -3.47753 2.354083 4.181259
H -3.85981 1.224181 1.968215
H -4.661146 -0.264059 -0.811537
H -6.092281 1.235385 -2.21177
H -5.124832 3.31931 -3.213663
H -2.720239 3.903163 -2.808492
H -1.28045 2.402352 -1.397362
H -2.344059 -2.117146 -1.874124
H -3.435237 -4.361409 -1.717498
H -4.357678 -5.160212 0.473968
H -4.182275 -3.707063 2.508639
H -3.098551 -1.454857 2.353022
