55

Re 0.769484 -1.04282 0.12665
Cl 0.384195 -1.292225 -2.341173
P -1.338428 0.245506 0.054057
O 3.475638 -2.589104 -0.099675
O 1.254944 -0.551042 3.142305
O -0.716699 -3.692196 0.749323
N 1.681112 0.881343 -0.503843
C -1.332793 1.428505 -1.35895
C -2.545316 1.768187 -1.979708
C -2.593997 2.707437 -3.023021
C -1.417042 3.340658 -3.444504
C -0.205202 3.021672 -2.82354
C -0.127235 2.051641 -1.793468
C 1.221158 1.829746 -1.269461
C 3.09116 0.943154 -0.233269
C 3.552376 1.187549 1.072762
C 4.931482 1.216679 1.319545
C 5.847429 0.991216 0.278255
C 5.378676 0.741026 -1.020395
C 4.001292 0.721081 -1.283866
C -1.670166 1.326038 1.507114
C -1.802237 2.724629 1.405296
C -2.007992 3.498044 2.55923
C -2.091098 2.882928 3.817175
C -1.964353 1.487625 3.922711
C -1.748048 0.712242 2.776403
C -2.898351 -0.701554 -0.178881
C -4.065695 -0.423797 0.560127
C -5.228362 -1.179531 0.34029
C -5.231826 -2.206483 -0.616066
C -4.069191 -2.478494 -1.356266
C -2.901228 -1.73413 -1.141633
C 2.473606 -2.004208 -0.01642
C 1.066526 -0.738977 1.998318
C -0.137223 -2.705287 0.522918
H -3.47233 1.280146 -1.644378
H -3.556773 2.944564 -3.500042
H -1.441085 4.083637 -4.25525
H 0.721636 3.518568 -3.150009
H 1.955501 2.592254 -1.59915
H 2.828477 1.349994 1.882977
H 5.292632 1.413495 2.340131
H 6.92835 1.002835 0.482422
H 6.089129 0.549546 -1.838561
H 3.612769 0.490257 -2.286802
H -1.745365 3.213855 0.421923
H -2.105716 4.590778 2.47085
H -2.251705 3.491681 4.719801
H -2.022665 0.998634 4.906647
H -1.636596 -0.378953 2.866262
H -4.067139 0.38056 1.310369
H -6.136464 -0.962687 0.923221
H -6.143938 -2.799379 -0.783648
H -4.066672 -3.284055 -2.106034
H -1.985159 -1.935252 -1.723317
