55

Re 0.74854 -0.616625 -0.795983
Br 0.464947 -2.459205 1.103918
P -1.369176 0.335509 0.05124
O 3.482902 -1.92804 -1.551375
O 1.155649 1.581211 -2.931829
O -0.714251 -2.412891 -2.857428
N 1.641787 0.575885 0.851252
C -1.355524 0.427143 1.891691
C -2.555681 0.27945 2.604761
C -2.592507 0.39887 4.003821
C -1.418399 0.696531 4.708819
C -0.219294 0.860653 4.00816
C -0.151419 0.70584 2.601344
C 1.185733 0.88057 2.03351
C 3.044815 0.822908 0.656709
C 3.471866 1.808881 -0.250831
C 4.844275 2.014856 -0.445185
C 5.78733 1.237202 0.247644
C 5.352514 0.251167 1.146216
C 3.982041 0.042797 1.359862
C -1.7031 2.077126 -0.447828
C -1.808923 3.130673 0.480868
C -2.016341 4.445561 0.033183
C -2.127648 4.716107 -1.338649
C -2.028354 3.66711 -2.268188
C -1.810716 2.355393 -1.827925
C -2.934615 -0.551121 -0.334725
C -4.111102 0.132269 -0.703771
C -5.28206 -0.590234 -0.982055
C -5.285818 -1.990608 -0.889159
C -4.115079 -2.670727 -0.515352
C -2.939064 -1.959266 -0.24056
C 2.470874 -1.432017 -1.265473
C 0.992131 0.751179 -2.117382
C -0.143435 -1.740192 -2.094261
H -3.481619 0.058477 2.053779
H -3.544865 0.264352 4.538294
H -1.434922 0.801503 5.803631
H 0.705865 1.094653 4.557535
H 1.915733 1.322331 2.741318
H 2.727296 2.403791 -0.797333
H 5.178643 2.790212 -1.150749
H 6.862954 1.395895 0.080014
H 6.084507 -0.371351 1.682396
H 3.620574 -0.749815 2.031676
H -1.731529 2.925888 1.558664
H -2.093678 5.263263 0.765883
H -2.289617 5.747539 -1.686563
H -2.109842 3.872223 -3.346129
H -1.722301 1.539322 -2.561048
H -4.112555 1.229707 -0.777514
H -6.196558 -0.052228 -1.274853
H -6.204534 -2.55461 -1.111483
H -4.111924 -3.768743 -0.442281
H -2.01956 -2.488126 0.062617
