59

C 1.788009 2.044177 -0.384158
C 2.062478 1.090664 -1.460497
C 2.583687 3.290304 -0.180264
H 2.240213 3.825449 0.721947
H 2.493073 3.967674 -1.054384
H 3.66026 3.04416 -0.073894
C 3.149219 1.257287 -2.470036
H 2.983391 0.557388 -3.309011
H 4.138904 1.022269 -2.02153
H 3.198468 2.293903 -2.855777
C -2.667123 0.766469 -1.072772
C -3.28319 1.664977 -0.186046
H -2.695481 2.461499 0.294407
C -4.638997 1.515848 0.123254
H -5.127407 2.211306 0.819719
C -5.372061 0.461142 -0.452848
C -4.75933 -0.432056 -1.350192
H -5.343327 -1.24312 -1.807298
C -3.400963 -0.279886 -1.655001
H -2.908547 -0.98858 -2.339347
N 0.788487 1.685921 0.400684
N 1.278617 0.019689 -1.428288
N -1.252086 0.861559 -1.318342
O 0.442023 2.425863 1.458828
H -0.366254 1.854737 1.912064
O 1.337397 -0.927899 -2.309628
Co -1e-05 5.7e-05 -6.6e-05
Br -7.193739 0.231102 -0.000801
H -0.949356 1.845708 -1.375155
H -1.010319 0.418813 -2.218531
C -1.788029 -2.044067 0.384002
C -2.062517 -1.090554 1.460334
C -2.583707 -3.290192 0.180092
H -2.240193 -3.825361 -0.722089
H -2.493146 -3.96754 1.054234
H -3.660273 -3.044043 0.073658
C -3.149285 -1.257169 2.469846
H -2.983495 -0.557243 3.308806
H -4.13896 -1.022182 2.021299
H -3.198529 -2.293774 2.855617
C 2.667097 -0.766422 1.072753
C 3.283203 -1.665053 0.186178
H 2.695505 -2.461609 -0.294231
C 4.639039 -1.516011 -0.123028
H 5.127477 -2.211561 -0.819381
C 5.372098 -0.461268 0.453014
C 4.759332 0.432047 1.350218
H 5.343323 1.243136 1.807285
C 3.400936 0.279955 1.654942
H 2.908496 0.988735 2.339183
N -0.788505 -1.685802 -0.400833
N -1.278652 -0.019582 1.42814
N 1.252043 -0.861447 1.318262
O -0.442059 -2.425709 -1.459009
H 0.366211 -1.854578 -1.912224
O -1.337439 0.927996 2.309489
Br 7.193813 -0.231331 0.001067
H 0.949282 -1.845584 1.375125
H 1.010277 -0.418651 2.218427
