58

Zn 0.007404 -0.312574 -0.009087
S -1.556186 2.064677 -1.603469
O -2.868619 2.11642 -0.925385
O -0.890324 0.686694 -1.580013
O -1.374654 2.722288 -2.904743
O -0.6524 2.991086 -0.424208
S 1.616227 2.422369 0.70706
O 0.776267 2.908661 -0.731714
O 0.878773 1.167241 1.167869
O 1.47666 3.519081 1.689343
O 2.948812 2.178829 0.120428
N -1.793372 -0.061345 1.118353
C -2.049403 0.987271 1.900882
H -1.207543 1.637091 2.185406
C -3.364695 1.328131 2.294845
H -3.494919 2.231712 2.906434
C -4.426688 0.54394 1.869316
H -5.462573 0.780873 2.157772
C -4.177132 -0.566047 1.016094
C -2.822953 -0.811147 0.650085
C -2.512834 -1.879314 -0.275767
C -3.561799 -2.709799 -0.777463
C -3.191501 -3.734144 -1.687727
H -3.967675 -4.397394 -2.100124
C -1.858465 -3.880651 -2.058136
H -1.546065 -4.660209 -2.767362
C -0.898272 -2.994097 -1.518489
H 0.164763 -3.060732 -1.804917
N -1.218852 -2.032713 -0.656422
C -5.208168 -1.422668 0.495806
H -6.249809 -1.225294 0.791904
C -4.914285 -2.459494 -0.359725
H -5.714447 -3.104501 -0.753153
N 1.790301 -0.338676 -1.239142
C 1.965187 0.386794 -2.344653
H 1.049419 0.813935 -2.783704
C 3.249069 0.616883 -2.890557
H 3.346144 1.228469 -3.798339
C 4.364293 0.084909 -2.256741
H 5.376824 0.255504 -2.653746
C 4.199567 -0.671368 -1.066974
C 2.868186 -0.84174 -0.590119
C 2.638059 -1.55446 0.649579
C 3.744391 -2.106692 1.364126
C 3.453943 -2.78188 2.578745
H 4.277095 -3.22086 3.163549
C 2.13841 -2.869911 3.022022
H 1.886563 -3.378783 3.963218
C 1.115181 -2.276376 2.247439
H 0.062271 -2.303173 2.574363
N 1.362242 -1.646755 1.101695
C 5.290301 -1.244433 -0.326282
H 6.312886 -1.105757 -0.708972
C 5.072971 -1.940316 0.840025
H 5.916974 -2.368889 1.401304
O -1.277493 3.849911 2.358522
H -1.439229 3.83305 1.392952
H -0.292035 3.843853 2.358396
