73

Ti -0.002899 0.002975 -0.000165
O 0.823978 -1.206358 -1.067535
O -0.837054 1.210057 -1.064978
O -1.20821 -0.827189 1.069495
O 1.208079 0.83375 1.062533
C 1.926458 -1.930402 -1.37471
C 2.455096 -1.825849 -2.68576
C 3.596164 -2.587004 -2.995855
H 4.021202 -2.517716 -4.009654
C 4.189826 -3.424415 -2.039813
H 5.081387 -4.013529 -2.301539
C 3.645449 -3.511204 -0.74972
H 4.109826 -4.168668 0.002069
C 2.507832 -2.767635 -0.389147
C 1.787425 -0.92178 -3.685887
H 0.726363 -1.207636 -3.842418
H 2.305453 -0.952273 -4.663057
H 1.771913 0.130889 -3.332791
C 1.902762 -2.832142 0.98721
H 1.944134 -1.84231 1.491514
H 2.439776 -3.557469 1.627166
H 0.833143 -3.130703 0.951868
C -1.942969 1.93332 -1.361703
C -2.485073 1.826586 -2.667066
C -3.629562 2.586833 -2.966612
H -4.064977 2.515774 -3.975877
C -4.213717 3.425493 -2.005824
H -5.108137 4.013888 -2.259281
C -3.656153 3.514406 -0.721525
H -4.113031 4.17284 0.034004
C -2.514614 2.771797 -0.371522
C -1.895699 2.838565 0.998571
H -1.933028 1.849818 1.505352
H -2.425644 3.565686 1.642382
H -0.826232 3.136044 0.951938
C -1.827355 0.921183 -3.672573
H -2.356196 0.948875 -4.644019
H -1.806536 -0.130664 -3.31732
H -0.768466 1.208091 -3.84148
C -1.925728 -1.934468 1.375014
C -2.76553 -2.514964 0.391122
C -3.502044 -3.657645 0.750199
H -4.16139 -4.121433 -0.000306
C -3.405954 -4.207749 2.037202
H -3.989652 -5.103198 2.297789
C -2.566165 -3.61482 2.991611
H -2.489545 -4.044322 4.002998
C -1.811845 -2.468842 2.682914
C -2.83996 -1.90382 -0.982063
H -1.853047 -1.94021 -1.492443
H -3.141123 -0.835195 -0.940024
H -3.56762 -2.439964 -1.6201
C -0.905373 -1.801833 3.681319
H -0.928738 -2.324214 4.656366
H -1.194675 -0.742612 3.843895
H 0.145408 -1.780541 3.322906
C 1.938424 1.934393 1.361158
C 2.774852 2.506815 0.369682
C 3.525009 3.642768 0.72176
H 4.181956 4.100176 -0.03474
C 3.445379 4.194158 2.009325
H 4.039585 5.084274 2.264374
C 2.608557 3.60937 2.97134
H 2.544806 4.039969 3.983155
C 1.84096 2.470334 2.669803
C 2.831706 1.894501 -1.003802
H 3.556857 2.425236 -1.649176
H 1.840207 1.937509 -1.504712
H 3.126081 0.82387 -0.964217
C 0.937372 1.811976 3.676543
H -0.116139 1.797011 3.325991
H 0.971694 2.336421 4.650157
H 1.220656 0.751183 3.83959
