59

I 0.000242 -2.562487 1e-05
Ni 6e-06 0.026595 -0.000191
P -2.160665 0.204859 -0.012657
P 2.16063 0.205167 0.012599
C -0.000152 1.952616 -0.000493
C -1.184553 2.700032 -0.288575
C -1.178547 4.10728 -0.281092
H -2.108223 4.655329 -0.504446
C -0.000542 4.813958 -0.000563
H -0.000698 5.914623 -0.000561
C 1.177657 4.107612 0.27995
H 2.107189 4.655922 0.503266
C 1.184059 2.700356 0.287472
C -2.446871 1.937333 -0.616585
H -2.601062 1.881722 -1.716726
H -3.361446 2.397483 -0.186094
C -3.194716 -0.893271 -1.112638
H -3.038893 -1.905282 -0.679026
C -2.975746 0.169146 1.673689
H -4.000605 0.572624 1.510567
C -3.070184 -1.258012 2.222822
H -3.694041 -1.917251 1.587286
H -3.521927 -1.242991 3.236542
H -2.065692 -1.72248 2.295613
C -2.223927 1.101664 2.632489
H -2.148024 2.137439 2.247224
H -1.188834 0.740065 2.801298
H -2.743436 1.134024 3.612848
C -4.684722 -0.539419 -1.095409
H -5.127422 -0.612583 -0.082289
H -5.248782 -1.23352 -1.753158
H -4.865626 0.488481 -1.473727
C -2.604769 -0.900455 -2.527922
H -3.14743 -1.629874 -3.163997
H -1.535343 -1.190394 -2.509129
H -2.69032 0.09266 -3.016926
C 2.446645 1.938072 0.615423
H 2.601461 1.883268 1.715516
H 3.360909 2.398108 0.18414
C 3.194336 -0.892149 1.113716
H 3.038907 -1.904437 0.680608
C 2.976312 0.168436 -1.673427
H 4.000988 0.572352 -1.510222
C 4.684289 -0.538044 1.096995
H 4.864844 0.490067 1.474904
H 5.127457 -0.611608 0.084107
H 5.248175 -1.231732 1.755328
C 2.603688 -0.898599 2.528709
H 3.146321 -1.627359 3.165564
H 1.534386 -1.188974 2.509565
H 2.688572 0.094891 3.017071
C 3.071372 -1.259021 -2.221649
H 3.695246 -1.917668 -1.585517
H 3.523433 -1.244469 -3.235235
H 2.067051 -1.723852 -2.294479
C 2.224462 1.100121 -2.63302
H 2.147936 2.136068 -2.248328
H 1.189601 0.737949 -2.802026
H 2.74432 1.132209 -3.613202
