45

Zr 0.070643 0.599508 -0.08236
P 1.770362 -1.534495 -0.234337
O -0.122472 -0.107796 3.162339
C 0.410487 3.100522 0.017703
C 1.160199 2.648457 -1.111816
C 2.20328 1.804076 -0.64001
C 2.100197 1.729305 0.791248
C 0.990201 2.547244 1.194431
C -2.417576 0.764116 0.224352
C -2.047123 1.353341 -1.011759
C -1.420035 0.566432 -2.035567
C -1.095406 -0.788499 -1.756151
C -1.457075 -1.327646 -0.477415
C -2.713231 -0.744323 0.190653
C -3.981316 -1.019311 -0.657197
C -2.948185 -1.344031 1.579825
C -0.13278 0.052221 1.999731
C 1.657969 -2.647748 1.24313
C 1.601647 -2.782375 -1.5993
C 3.606338 -1.261234 -0.297511
H -0.455078 3.772925 -0.011339
H 0.966557 2.909431 -2.159633
H 2.974377 1.336852 -1.261821
H 2.788888 1.214182 1.470886
H 0.672663 2.745729 2.224342
H -2.894145 1.392337 0.993196
H -2.158837 2.435755 -1.172822
H -1.14469 1.022472 -2.996983
H -0.545514 -1.372746 -2.507126
H -1.221469 -2.385564 -0.273282
H -4.165968 -2.111715 -0.736406
H -4.875 -0.552293 -0.191315
H -3.874402 -0.612775 -1.681443
H -3.801217 -0.844468 2.083705
H -2.065174 -1.254905 2.234761
H -3.197434 -2.421903 1.492534
H 1.928241 -2.06913 2.147564
H 2.318918 -3.534733 1.153295
H 0.60589 -2.972199 1.360112
H 2.326491 -3.611955 -1.470707
H 0.577119 -3.201634 -1.60043
H 1.780328 -2.288919 -2.574562
H 3.919275 -0.588353 0.523571
H 3.881701 -0.788354 -1.260198
H 4.15157 -2.221869 -0.201245
