83

Ni 1e-06 -1.6e-05 -1.1e-05
O 1.78622 -0.210975 -0.470625
O -6.4649 -3.357555 -0.946348
O -6.051891 -4.518385 0.859721
N -0.345202 -1.893744 -0.093862
N -5.714771 -3.755964 -0.047936
N 6.197787 -2.031123 -0.561915
C -1.683025 -2.362282 -0.072224
C -2.579335 -1.963236 -1.08937
C -3.893303 -2.427371 -1.09614
C -4.320193 -3.280338 -0.063214
C -3.452319 -3.686693 0.959724
C -2.133119 -3.225071 0.950901
C 0.609196 -2.819431 -0.080492
C 2.002257 -2.595795 -0.165079
C 2.541533 -1.269984 -0.365973
C 3.943205 -1.111296 -0.482276
C 4.835938 -2.206735 -0.431402
C 4.277331 -3.524035 -0.247213
C 2.912896 -3.691716 -0.125508
C 6.771975 -0.685979 -0.593306
C 6.872464 -0.008205 0.776777
C 7.121868 -3.159134 -0.491079
C 7.480174 -3.616903 0.927536
H -2.218823 -1.282597 -1.872622
H -4.60519 -2.146782 -1.882976
H -3.834227 -4.346517 1.74983
H -1.443694 -3.503679 1.761038
H 0.279212 -3.876184 -0.048773
H 4.293036 -0.082529 -0.622436
H 4.927167 -4.404931 -0.194034
H 2.505394 -4.706092 0.013305
H 7.776993 -0.768546 -1.054554
H 6.173476 -0.058659 -1.28666
H 7.199378 1.045608 0.676168
H 7.590037 -0.533925 1.437076
H 5.886632 -0.004327 1.282172
H 8.043171 -2.858624 -1.031169
H 6.69984 -4.006194 -1.07058
H 8.156137 -4.495402 0.891198
H 7.993894 -2.815487 1.493745
H 6.573443 -3.903796 1.496391
O -1.786222 0.210907 0.470546
C -2.541525 1.269941 0.366093
C -2.002235 2.595768 0.165363
C -0.609177 2.819385 0.080704
N 0.345212 1.893679 0.093893
C 1.683034 2.362219 0.072112
C 2.579477 1.963129 1.089124
C 3.893436 2.427293 1.09576
C 4.320178 3.280332 0.062831
N 5.714745 3.755992 0.047405
O 6.464963 3.357655 0.945771
O 6.051763 4.518353 -0.860341
C 3.452174 3.686718 -0.959982
C 2.132983 3.225073 -0.951018
H 1.443448 3.503733 -1.761045
H 3.83397 4.346593 -1.7501
H 4.60542 2.146694 1.882504
H 2.21907 1.282448 1.872388
H -0.279174 3.876134 0.049073
C -2.912861 3.691708 0.125968
C -4.277296 3.524023 0.247669
C -4.83592 2.206704 0.431656
N -6.197771 2.031129 0.562216
C -6.772039 0.686014 0.593522
C -6.872689 0.008341 -0.776603
H -7.199665 -1.045456 -0.676023
H -7.59029 0.534146 -1.436801
H -5.886904 0.004428 -1.282087
H -7.777022 0.768614 1.05484
H -6.173541 0.058601 1.286793
C -7.121792 3.15919 0.491407
C -7.479998 3.617072 -0.927196
H -8.155906 4.495612 -0.890828
H -7.993746 2.815727 -1.493482
H -6.573222 3.903946 -1.495987
H -8.043135 2.858694 1.031436
H -6.699744 4.006191 1.070981
C -3.943197 1.111248 0.482386
H -4.293031 0.082468 0.622428
H -4.927125 4.404938 0.194666
H -2.50535 4.7061 -0.012697
