85

Pd 0.387285 -0.492191 -0.876758
Cl 0.646314 -2.203752 0.748564
N -0.397652 1.45082 1.22976
N -2.13166 0.235065 0.775642
C -3.594732 -0.282182 -1.125206
C -4.503901 -1.166354 -1.732266
H -4.956585 -0.899082 -2.697341
C -4.843076 -2.38342 -1.125399
H -5.559558 -3.058917 -1.617272
C -4.266106 -2.747452 0.094747
H -4.526038 -3.712643 0.553463
C -3.340097 -1.907053 0.74418
C -3.035287 -0.675656 0.118967
C -3.244794 1.059386 -1.761792
H -2.171745 1.238892 -1.544673
C -3.396735 1.07346 -3.287378
H -2.863724 0.225253 -3.760942
H -2.978809 2.013373 -3.701247
H -4.459982 1.025819 -3.601845
C -4.051619 2.207979 -1.126401
H -5.137957 2.072477 -1.308276
H -3.750962 3.183378 -1.562567
H -3.894833 2.268335 -0.031868
C -2.723265 -2.319738 2.074464
H -1.827346 -1.686324 2.233595
C -3.712775 -2.083898 3.230812
H -4.045669 -1.028234 3.290441
H -3.246578 -2.347735 4.202112
H -4.62126 -2.710368 3.109591
C -2.227152 -3.773044 2.063088
H -3.060868 -4.499536 1.967761
H -1.701856 -3.996774 3.013463
H -1.506304 -3.929652 1.238302
C -2.477885 1.039506 1.862767
H -3.468401 0.994754 2.322422
C -1.380821 1.805192 2.151319
H -1.211832 2.562233 2.921278
C -0.843938 0.471177 0.379501
C 0.904355 2.060355 1.105086
C 1.046894 3.146829 0.203721
C 2.328652 3.709919 0.065082
H 2.479413 4.55084 -0.626618
C 3.417763 3.20957 0.791084
H 4.413539 3.661291 0.664218
C 3.245821 2.136146 1.671957
H 4.108943 1.745806 2.229782
C 1.985569 1.531921 1.850499
C -0.145522 3.700016 -0.568974
H -0.83685 2.850357 -0.748146
C 0.23054 4.283122 -1.9383
H 0.788263 5.237378 -1.842367
H -0.685139 4.501879 -2.523964
H 0.857992 3.586424 -2.528762
C -0.906256 4.75026 0.263599
H -1.25642 4.337838 1.228963
H -1.796096 5.11662 -0.288717
H -0.254581 5.621315 0.482545
C 1.799819 0.380792 2.827911
H 0.926228 -0.208886 2.482558
C 2.986322 -0.591533 2.843048
H 3.208094 -0.963347 1.824348
H 2.734923 -1.473481 3.464638
H 3.902419 -0.133488 3.272263
C 1.50344 0.920108 4.240057
H 2.355968 1.518222 4.625188
H 1.328625 0.081959 4.945161
H 0.605114 1.569306 4.2578
C 3.150397 -1.772557 -1.804981
C 3.526011 -3.116884 -2.023548
H 2.860224 -3.76764 -2.61152
C 4.721623 -3.628079 -1.501483
H 4.991448 -4.679481 -1.684681
C 5.56914 -2.806715 -0.741932
H 6.50573 -3.208157 -0.326192
C 5.202343 -1.470794 -0.503109
H 5.847556 -0.823184 0.110576
C 4.007519 -0.960553 -1.022177
H 3.715321 0.073683 -0.783493
C 1.879695 -1.269898 -2.349142
H 1.252664 -2.008563 -2.878426
C 1.592194 0.110326 -2.53264
H 2.360665 0.865035 -2.288771
C 0.247128 0.533173 -2.741659
H -0.454229 -0.113289 -3.29861
H 0.025635 1.609139 -2.789736
