50

Co -0.992424 -0.95347 -0.283998
N -1.373021 0.928086 0.289742
N 1.176973 5.011377 1.568346
N 0.498456 -0.54854 -1.473682
N 0.400468 -1.357472 1.016478
O -2.343173 -1.508276 0.886578
O -3.92835 -0.754384 2.290204
O -2.245877 -0.711892 -1.652241
O -3.672272 0.779619 -2.542358
O 1.959302 3.377902 0.181294
C -2.967613 -0.563797 1.574914
C -2.258204 0.797379 1.487242
C -2.793185 0.489404 -1.758577
C -2.100282 1.532248 -0.867925
C -0.130878 1.687332 0.606268
C -0.315506 3.156028 0.981554
C 1.057586 3.851597 0.8708
C 0.477954 -0.165892 -2.757165
C 1.670532 0.096138 -3.46875
C 2.905849 -0.050779 -2.841695
C 2.951706 -0.480173 -1.488842
C 4.152808 -0.69801 -0.724304
C 4.101926 -1.13735 0.580808
C 2.844701 -1.391425 1.236258
C 2.691335 -1.858571 2.568923
C 1.410555 -2.075046 3.073671
C 0.277785 -1.81633 2.269049
C 1.650864 -1.164713 0.500354
C 1.70414 -0.718385 -0.853784
O -1.103728 -2.848739 -0.888369
H 2.043651 5.544879 1.479178
H 0.412279 5.410581 2.111061
H -1.753589 -3.151697 -0.206692
H -1.686781 -2.688331 -1.671417
H -2.997914 1.620422 1.529825
H -1.625709 0.86933 2.395354
H -1.35767 2.04355 -1.514086
H -2.83385 2.290432 -0.531948
H 0.539701 1.660144 -0.272158
H 0.387565 1.154541 1.425384
H -0.750188 3.28716 1.99359
H -0.997857 3.668523 0.269945
H -0.51366 -0.078158 -3.22673
H 1.602793 0.414631 -4.518431
H 3.840455 0.155654 -3.384424
H 5.12305 -0.509958 -1.20722
H 5.031309 -1.303959 1.145182
H 3.580017 -2.052385 3.18831
H 1.260922 -2.448792 4.096386
H -0.748872 -1.988788 2.62699
