39

Ru 0.804943 -0.452882 0.009704
Cl -0.639907 -2.265757 0.720103
Cl -0.282896 0.91295 1.664434
N -3.307808 1.306006 -1.466283
H -2.954022 1.858846 -2.249507
C -2.40951 0.450233 -0.87174
S -0.847937 0.352334 -1.555975
N -2.856904 -0.243314 0.188948
H -2.174192 -0.926977 0.620536
C -4.157625 -0.161525 0.773102
O -4.447847 -0.843049 1.74111
C -5.043728 0.779483 0.078723
H -6.065369 0.899432 0.458038
C -4.596828 1.467669 -1.007638
H -5.214177 2.18326 -1.569779
C 2.529958 -1.577437 0.703528
H 2.486923 -2.352875 1.482288
C 2.667824 -0.217766 1.083986
H 2.725806 0.037522 2.152406
C 2.5507 0.854031 0.115837
C 2.31208 0.481464 -1.240868
H 2.123733 1.263924 -1.989829
C 2.183815 -0.900337 -1.631923
H 1.909648 -1.14586 -2.669157
C 2.278232 -1.950751 -0.674208
C 2.620968 2.294906 0.581875
H 2.144526 2.297389 1.585852
C 1.81615 3.258936 -0.293624
H 2.25422 3.369552 -1.308026
H 1.804321 4.267108 0.166167
H 0.7689 2.909067 -0.387012
C 4.091957 2.723592 0.722937
H 4.656228 2.041915 1.391132
H 4.160241 3.746703 1.144898
H 4.602007 2.727079 -0.263153
C 2.051349 -3.386731 -1.043294
H 1.320764 -3.843758 -0.346071
H 3.002234 -3.956576 -0.985223
H 1.649061 -3.477628 -2.069761
