23

Pt 0.04278 -0.464471 0.017541
Cl 1.876635 -1.921945 -0.129223
Cl -0.081695 -0.34658 -2.376448
Cl 0.205574 -0.474473 2.370686
Cl -1.4404 -2.251052 0.048866
N 1.35825 1.149218 -0.011667
N 2.676959 0.940543 -0.105715
H 2.965512 -0.062062 -0.15835
N -1.593434 0.786899 0.127134
N -2.26095 1.115995 -0.990011
H -1.848564 0.751803 -1.879596
C 3.354513 2.110135 -0.095223
H 4.44713 2.132127 -0.163319
C 2.406394 3.13286 0.011697
H 2.593737 4.210031 0.04923
C 1.159282 2.477046 0.062693
H 0.145797 2.880235 0.152764
C -2.255305 1.30933 1.176826
H -1.873497 1.124873 2.187551
C -3.381441 2.009002 0.697554
H -4.127417 2.548113 1.289112
C -3.35129 1.857452 -0.693258
H -4.020162 2.218961 -1.48149
