61

Pd 1e-06 0.00077 2.6e-05
Br -0.352676 0.000266 -2.45397
C -1.996491 0.000532 0.271714
C -4.149986 -0.708701 0.415989
C -4.150491 0.708467 0.414853
C -5.343509 1.440066 0.48561
C -6.537039 0.705499 0.56063
C -6.536537 -0.707201 0.561744
C -5.342484 -1.441034 0.487891
C -2.324283 -2.469237 0.270013
C -2.477722 -3.057023 -1.107078
C -3.120776 -4.207084 -1.366024
C -2.326065 2.470074 0.266259
C -2.480983 3.056221 -1.111363
C -3.125213 4.205449 -1.371083
N -2.810269 -1.092461 0.342078
N -2.811043 1.09306 0.340301
H -5.344714 2.538273 0.467251
H -7.49532 1.243005 0.612406
H -7.494437 -1.245305 0.614361
H -5.342912 -2.539272 0.47128
H -2.853723 -3.074429 1.034446
H -1.253081 -2.416784 0.56046
H -2.003754 -2.468724 -1.9146
H -2.85525 3.075801 1.030453
H -1.254579 2.41862 0.555827
H -2.007009 2.467473 -1.918545
H -3.601674 4.794595 -0.568321
H -3.192475 4.607942 -2.393517
H -3.186983 -4.610709 -2.38808
H -3.597292 -4.795789 -0.562973
Br 0.35266 0.000319 2.454024
C 1.996489 0.000493 -0.271677
N 2.811063 1.093004 -0.340285
C 4.1505 0.708381 -0.414883
C 4.149964 -0.708787 -0.41602
C 5.342447 -1.441141 -0.487952
C 6.536512 -0.707331 -0.56184
C 6.537043 0.705369 -0.560729
C 5.343529 1.439958 -0.485676
H 5.34475 2.538165 -0.467315
H 7.495334 1.242854 -0.612531
H 7.494399 -1.245455 -0.614487
H 5.342859 -2.539379 -0.471341
N 2.810241 -1.092517 -0.342074
C 2.324223 -2.469276 -0.270027
C 2.477555 -3.057049 1.107085
C 3.120575 -4.207116 1.366087
H 3.597131 -4.795836 0.563071
H 3.186712 -4.610734 2.38815
H 2.003554 -2.468726 1.91457
H 2.853701 -3.074491 -1.034413
H 1.253041 -2.416811 -0.560548
C 2.326122 2.470036 -0.266233
C 2.481222 3.05624 1.11134
C 3.125472 4.205488 1.370928
H 3.192851 4.608025 2.393336
H 3.601834 4.794603 0.568084
H 2.007342 2.467536 1.918608
H 2.855229 3.07572 -1.030517
H 1.254598 2.418591 -0.555667
