75

Ti -0.060359 -2.468587 -0.31195
Cl -0.827911 -2.328599 1.91642
Cl 0.669536 -2.110177 -2.517475
P 2.36173 0.073116 0.05938
P -2.353445 0.108377 -0.100177
F -1.308116 -3.641609 -0.778219
F 1.229887 -3.628226 0.072946
O 1.193 -0.908009 0.233211
O -1.385314 -0.915176 -0.729686
C 3.758851 -0.639221 -0.851622
C 4.696891 0.183533 -1.507506
H 4.563661 1.276836 -1.521252
C 5.787084 -0.400219 -2.168808
H 6.520408 0.237553 -2.685091
C 5.929748 -1.797453 -2.185345
H 6.781061 -2.254464 -2.712646
C 4.981713 -2.613052 -1.546487
H 5.08263 -3.708194 -1.579026
C 3.890732 -2.042461 -0.87555
H 3.129293 -2.677959 -0.397923
C 2.917604 0.553761 1.722574
C 4.146649 1.201565 1.960118
H 4.841424 1.39989 1.129028
C 4.493238 1.57151 3.26763
H 5.453118 2.074809 3.458399
C 3.622182 1.284883 4.332839
H 3.900458 1.570591 5.358864
C 2.409064 0.620032 4.093729
H 1.734847 0.3793 4.92955
C 2.048391 0.249501 2.78966
H 1.111073 -0.295488 2.589199
C 1.847989 1.579863 -0.828328
C 1.024344 1.401461 -1.960771
H 0.755433 0.381639 -2.287787
C 0.542568 2.528119 -2.642685
H -0.118188 2.393759 -3.511511
C 0.881409 3.821061 -2.208714
H 0.492514 4.699741 -2.74559
C 1.711171 3.993798 -1.088687
H 1.976003 5.006018 -0.746851
C 2.19208 2.874084 -0.392092
H 2.811942 3.008518 0.506932
C -3.856069 -0.703772 0.521133
C -3.992466 -2.0911 0.319721
H -3.183811 -2.660456 -0.162802
C -5.158642 -2.734739 0.761078
H -5.264509 -3.819858 0.613162
C -6.177094 -2.005423 1.393775
H -7.087719 -2.518241 1.739415
C -6.036263 -0.62127 1.592813
H -6.832856 -0.049678 2.092571
C -4.875911 0.032777 1.157536
H -4.762715 1.115385 1.323596
C -1.693255 1.143615 1.244383
C -1.872519 0.753092 2.588574
H -2.434194 -0.161934 2.821751
C -1.307445 1.519299 3.616794
H -1.445747 1.209508 4.663601
C -0.55777 2.667405 3.312699
H -0.107061 3.260715 4.122703
C -0.374899 3.054061 1.976183
H 0.2168 3.948137 1.730985
C -0.939648 2.296078 0.94046
H -0.791362 2.602481 -0.10519
C -2.829887 1.228386 -1.458365
C -2.550213 0.789876 -2.768505
H -2.026497 -0.168869 -2.910346
C -2.91792 1.590911 -3.859993
H -2.701094 1.248754 -4.88343
C -3.553531 2.825334 -3.648269
H -3.837507 3.45277 -4.506948
C -3.826533 3.262824 -2.341287
H -4.319449 4.232598 -2.175024
C -3.469343 2.465086 -1.244507
H -3.673195 2.816617 -0.221371
