62

Ir -0.610087 -0.804776 -0.23158
S 0.739265 1.639937 1.715129
F -1.841262 2.386843 1.43297
F -0.424634 3.521876 0.208047
F -0.549002 3.878853 2.357536
O 1.968028 2.459922 1.818954
O 0.21818 0.910442 2.896627
N 0.837125 -0.742703 -1.859901
N 0.825567 0.66791 0.417667
C -2.485467 -1.831518 0.140077
C -1.883853 -1.455777 1.411782
C -0.645805 -2.245133 1.563554
C -0.446363 -2.998752 0.376797
C -1.562831 -2.712986 -0.543123
C -3.86233 -1.48458 -0.328124
C -2.533497 -0.659259 2.499005
C 0.232162 -2.223919 2.772069
C 0.694273 -3.921573 0.075593
C -1.806223 -3.39167 -1.85676
C -0.614611 2.937847 1.403995
C 1.132985 0.712248 -1.975039
C 1.790595 1.067711 -0.609532
C -0.205295 1.377011 -2.144113
C -0.419064 2.497617 -2.959168
C -1.692446 3.085614 -3.005253
C -2.728316 2.543332 -2.227766
C -2.506525 1.418743 -1.414092
C -1.240947 0.803536 -1.354219
C 3.128214 0.341944 -0.468265
C 3.284061 -0.724623 0.437224
C 4.496704 -1.42925 0.50868
C 5.572122 -1.071543 -0.318579
C 5.430254 0.001854 -1.214183
C 4.216922 0.700784 -1.288539
H 1.695752 -1.27658 -1.648501
H 0.418223 -1.104929 -2.725807
H -3.896231 -1.289883 -1.416912
H -4.554041 -2.326371 -0.10957
H -4.255955 -0.591808 0.192097
H -1.780575 -0.064882 3.048451
H -3.278161 0.047966 2.087709
H -3.05535 -1.328866 3.217319
H 1.185132 -2.758229 2.596254
H 0.453496 -1.180291 3.071703
H -0.279465 -2.718927 3.625079
H 0.430934 -4.97477 0.313925
H 0.969446 -3.896298 -0.998129
H 1.597955 -3.660068 0.658378
H -2.312896 -4.371083 -1.71414
H -2.446565 -2.774184 -2.515512
H -0.859523 -3.594487 -2.396885
H 1.837073 0.932259 -2.804986
H 1.976907 2.16094 -0.595745
H 0.409834 2.914439 -3.554743
H -1.874515 3.966006 -3.639676
H -3.72613 3.009838 -2.245646
H -3.333634 1.047419 -0.793938
H 2.44031 -0.968847 1.098994
H 4.605254 -2.256504 1.227292
H 6.5252 -1.618604 -0.257981
H 6.274825 0.301818 -1.853378
H 4.118427 1.55024 -1.984192
