31

C 2.626287 -0.00033 1.263326
C 2.626305 -7.2e-05 -1.263294
C 3.251889 -0.000314 2.7e-05
C 3.455799 -0.000756 2.520882
C 3.455897 -0.000187 -2.520819
H 4.348934 -0.000522 1.9e-05
H 3.196589 -0.892526 3.126435
H 4.538973 -7.2e-05 2.306843
H 3.195673 0.88984 3.127751
H 3.196747 -0.8918 -3.126626
H 3.195966 0.890632 -3.127422
H 4.539057 0.00031 -2.306655
I -0.000305 -2.727711 -0.000152
O 1.35962 -2e-06 1.497159
O 1.359667 0.000195 -1.497152
Pt 0.0 3e-06 -0.0
I 0.000305 2.727717 0.000153
O -1.359619 1e-06 -1.49716
O -1.359668 -0.000194 1.497152
C -2.626286 0.000307 -1.263327
C -2.626305 4.9e-05 1.263293
C -3.251888 0.000293 -2.8e-05
C -3.455798 0.000903 -2.520882
C -3.455898 2.9e-05 2.520819
H -4.348934 0.00051 -2.1e-05
H -3.19673 0.892861 -3.126224
H -4.538972 1.6e-05 -2.306842
H -3.195535 -0.889505 -3.127962
H -3.196499 0.891381 3.126896
H -3.196215 -0.891051 3.127151
H -4.539058 -0.000122 2.306654
