47

Re -0.676567 -0.352414 1.344198
F 2.634582 0.282634 -2.413479
F 4.803207 -1.224448 -2.998897
F 5.031421 -3.763549 -1.993748
F 3.068143 -4.772835 -0.372167
F 0.905153 -3.271547 0.244892
F 2.947093 0.006407 1.082517
F 5.062152 1.629381 1.426664
F 5.008364 4.201515 0.480572
F 2.78457 5.124605 -0.827851
F 0.660475 3.514925 -1.20902
F -3.095094 2.561917 -1.423582
F -5.760726 2.653148 -1.785008
F -7.282356 0.390495 -1.500567
F -6.083139 -1.97865 -0.818123
F -3.416862 -2.094277 -0.426693
O 1.417361 -0.204569 3.618634
O -1.599265 -3.131802 2.337539
O -2.776221 1.058852 3.10639
C 0.538892 0.823383 -0.317168
C 0.542384 -0.585093 -0.701027
C -0.828776 -0.973383 -0.894732
C -1.68432 0.169977 -0.713944
C -0.824514 1.269181 -0.327723
C 0.614076 -0.275898 2.775756
C -1.242066 -2.072613 2.007016
C -1.957546 0.49791 2.490411
C 1.708493 -1.4249 -1.028523
C 2.727915 -0.943376 -1.877232
C 3.856983 -1.712961 -2.195106
C 3.970835 -3.018691 -1.68822
C 2.962446 -3.535315 -0.856785
C 1.842925 -2.745618 -0.553401
C 1.705557 1.69376 -0.067473
C 2.872326 1.251998 0.593229
C 3.984672 2.084167 0.787295
C 3.958809 3.402707 0.303081
C 2.815044 3.87612 -0.360521
C 1.715614 3.023607 -0.544824
C -3.141915 0.225945 -0.913645
C -3.795314 1.429141 -1.263025
C -5.18444 1.497103 -1.453878
C -5.965224 0.338142 -1.314044
C -5.348262 -0.876331 -0.966882
C -3.959362 -0.919616 -0.78271
H -1.153959 -1.972314 -1.200803
H -1.152758 2.289936 -0.119675
