63

Au 1.046477 0.42583 -0.06561
N 3.146879 0.508628 -0.143448
N 6.458058 -0.844217 0.143553
C 3.890163 1.68001 -0.102737
C 8.855508 -1.052758 0.335737
H 9.831329 -0.554179 0.410935
C -10.526691 -1.688798 -0.881351
H -9.952038 -2.351389 -1.545515
C 4.962144 -2.799727 0.044493
N -7.777693 0.074029 0.454959
C 7.720234 -0.283244 0.241072
H 7.740431 0.811855 0.237933
C -3.547015 0.212814 0.172953
C 3.302744 3.024273 -0.199649
C -6.382404 0.067082 0.313569
C -12.614411 -0.883486 0.063285
H -13.71224 -0.929933 0.129398
N -8.403703 -0.776375 -0.254307
C -4.276805 -0.733563 -0.609578
H -3.713719 -1.407827 -1.271833
C 1.66612 4.592568 -1.116229
H 0.798241 4.782486 -1.765335
C -11.923624 -1.750164 -0.799761
H -12.478769 -2.477388 -1.411783
C 2.190717 3.296598 -1.0302
H 1.742464 2.484845 -1.622557
C -0.891179 0.339371 0.035537
C -10.506936 0.113333 0.768726
H -9.919436 0.826333 1.364204
C -5.670182 1.008502 1.092974
H -6.252566 1.673497 1.748175
C -2.130949 0.27959 0.099228
C -5.662568 -0.806167 -0.542523
H -6.236253 -1.529255 -1.139476
C -11.90012 0.046141 0.845139
H -12.444788 0.724152 1.520945
C -4.280445 1.083598 1.026681
H -3.728756 1.815884 1.633347
C -9.806671 -0.75864 -0.100023
C 5.264836 1.398378 0.024433
H 6.063046 2.146177 0.03716
C 3.881065 4.092891 0.525552
H 4.731843 3.891396 1.193933
C 2.244017 5.642172 -0.384566
H 1.826472 6.658261 -0.45079
C 3.356464 5.387962 0.434345
H 3.810514 6.203136 1.018016
C 4.025918 -0.534342 -0.056572
C 6.295285 -2.238684 0.142474
C 3.800941 -1.949004 -0.058022
C 2.515526 -2.545873 -0.1616
H 1.634819 -1.884555 -0.237235
C 5.352494 -0.008444 0.049043
C 4.767239 -4.2115 0.043399
H 5.628161 -4.888067 0.122178
C 3.499112 -4.76596 -0.055075
H 3.379621 -5.859278 -0.052124
C 7.472056 -3.022545 0.238743
H 7.363983 -4.112939 0.237178
C 8.736882 -2.463138 0.334118
H 9.626376 -3.103843 0.407616
C 2.364968 -3.924713 -0.158673
H 1.358232 -4.361641 -0.236158
