62

Ni 0.084582 -0.458844 -0.04545
P 0.042178 1.670806 -0.096288
P 2.245788 -0.484727 0.027854
N -0.586936 -2.262549 -0.003553
C -1.513119 -1.425639 -0.01641
C -2.974843 -1.434183 -0.007171
C -3.678237 -2.658524 -0.102026
C -5.077792 -2.671484 -0.09342
C -5.796313 -1.467205 0.014492
C -5.106218 -0.247757 0.113449
C -3.70527 -0.232416 0.100293
C -1.040975 2.64524 1.098714
C -1.031837 1.94872 2.463952
C -0.72394 4.140035 1.197105
C -0.301575 2.478678 -1.761422
C 0.702273 1.958456 -2.79796
C -1.741735 2.184849 -2.195398
C 3.205468 -1.288576 -1.378227
C 2.600284 -2.64487 -1.761679
C 4.721584 -1.342576 -1.173569
C 2.99144 -1.130101 1.626847
C 2.426834 -0.311519 2.795491
C 2.665349 -2.620224 1.787484
C 1.769187 2.289966 0.34897
C 2.866691 1.293607 -0.057627
H -3.099054 -3.590387 -0.183018
H -5.617182 -3.628281 -0.170344
H -6.897039 -1.480626 0.021342
H -5.665561 0.696528 0.19978
H -3.146084 0.711264 0.173425
H -2.058801 2.527483 0.665432
H -1.76706 2.416532 3.151458
H -0.035427 2.018249 2.949251
H -1.278675 0.872849 2.359067
H -1.46507 4.652199 1.846598
H -0.746275 4.644355 0.210012
H 0.275479 4.315373 1.645339
H -0.163752 3.576135 -1.638517
H 0.457024 2.347437 -3.808282
H 0.674043 0.848801 -2.840666
H 1.741944 2.264421 -2.567821
H -1.937784 2.605536 -3.203798
H -2.490842 2.620165 -1.504263
H -1.91868 1.089978 -2.236912
H 2.983764 -0.580003 -2.209162
H 2.98695 -2.975516 -2.748339
H 1.494361 -2.591332 -1.80515
H 2.857434 -3.430914 -1.024355
H 5.226992 -1.707113 -2.093017
H 4.993679 -2.040778 -0.355346
H 5.151074 -0.349636 -0.928955
H 4.093427 -0.983335 1.578569
H 2.799704 -0.709112 3.762596
H 1.318027 -0.36549 2.805989
H 2.715191 0.757733 2.742388
H 2.946443 -2.970241 2.802948
H 3.211472 -3.247517 1.056491
H 1.580082 -2.801657 1.639302
H 1.951012 3.29849 -0.078411
H 1.756783 2.409141 1.452571
H 3.780918 1.425947 0.558388
H 3.168725 1.460757 -1.111909
