79

Cr 0.499804 -0.903136 0.840641
Si -3.645549 0.029509 0.482406
O -2.408478 -0.187344 -0.702389
O -0.173054 4.362653 -0.173316
O 3.040331 -1.192576 -1.170628
O -1.240909 -2.615297 2.563761
O 2.837164 -2.021489 2.337511
O 0.330791 1.279598 2.880032
C -1.075441 -0.427939 -0.722197
C -0.605915 -1.77843 -0.879711
C 0.787628 -2.027473 -1.077512
C 1.70299 -0.919947 -1.014434
C 1.268556 0.42032 -0.773724
C 2.198615 1.634935 -0.813927
H 2.208144 1.95671 -1.882181
C 1.622678 2.817494 -0.005803
H 1.739302 2.619136 1.081993
H 2.205144 3.734061 -0.221629
C 0.175382 3.063493 -0.293267
C -0.664912 2.031266 -0.586409
H -1.738824 2.173033 -0.73947
C -0.154929 0.669634 -0.683318
C -1.543111 4.699864 -0.330344
H -1.918327 4.419695 -1.339001
H -1.615865 5.794647 -0.199491
H -2.171098 4.192784 0.434515
C 3.519024 -1.024527 -2.500379
H 3.07627 -1.776917 -3.192254
H 4.615698 -1.157815 -2.461029
H 3.29972 -0.010325 -2.897187
C 1.310687 -3.425407 -1.358023
H 2.268031 -3.334554 -1.904775
H 0.606069 -3.923976 -2.055379
C 1.537414 -4.315676 -0.129262
H 2.341613 -3.907817 0.510545
H 1.830425 -5.338766 -0.441684
H 0.626716 -4.392687 0.496883
C -1.624516 -2.889028 -0.988562
H -2.43732 -2.705775 -0.264866
H -1.165835 -3.85069 -0.693156
C -2.210911 -2.98405 -2.404343
H -2.710685 -2.036218 -2.685876
H -2.960076 -3.798522 -2.467561
H -1.424074 -3.187569 -3.159116
C -4.266631 -1.627603 1.127273
H -4.631959 -2.291149 0.318693
H -5.112759 -1.443942 1.821907
H -3.479817 -2.15729 1.699749
C -3.03288 1.057504 1.931239
H -2.353141 0.458621 2.567612
H -3.897635 1.361348 2.557005
H -2.48252 1.966696 1.623988
C -5.012899 0.900256 -0.544155
C -4.50871 2.258229 -1.064618
H -3.647108 2.134118 -1.751754
H -4.199577 2.931497 -0.23828
H -5.311844 2.779959 -1.631178
C -6.242456 1.120575 0.358935
H -7.055 1.622165 -0.212038
H -6.010715 1.765332 1.232257
H -6.655361 0.16551 0.743652
C -5.397828 0.008236 -1.739886
H -5.796336 -0.974722 -1.414679
H -4.52799 -0.180673 -2.401197
H -6.188048 0.498308 -2.351
C 3.645832 1.427081 -0.392963
C 3.96754 0.952853 0.893093
H 3.158935 0.669792 1.580916
C 5.303021 0.811595 1.289271
H 5.530986 0.415435 2.290296
C 6.34321 1.164241 0.412814
H 7.392873 1.051836 0.724335
C 6.03434 1.66818 -0.859182
H 6.84028 1.962409 -1.549034
C 4.69326 1.800691 -1.254858
H 4.454901 2.200748 -2.254202
C -0.551297 -1.936193 1.894594
C 1.926646 -1.588271 1.739796
C 0.397682 0.413656 2.089003
