31

Pt -9.9e-05 -1.650158 -0.037786
Cl 5.170059 2.254046 0.419505
C 2.589643 -0.751602 0.907194
H 2.59664 -1.811096 1.195342
N 1.423261 -0.288188 0.409459
Cl 1.638835 -3.177517 -0.639997
C 3.753883 0.022561 0.971485
H 4.679145 -0.404819 1.378637
C 3.715289 1.307923 0.452221
C 2.486196 1.849762 -0.032161
C 1.297722 1.032547 0.034861
C 2.424562 3.166507 -0.577253
H 3.358444 3.735834 -0.674278
C 1.22067 3.698891 -0.953014
H 1.164773 4.714683 -1.371069
C 0.000162 2.986987 -0.739329
C 0.00012 1.634844 -0.258279
C -1.297513 1.0327 0.035069
N -1.423162 -0.288022 0.409718
Cl -1.639326 -3.177032 -0.640389
C -2.589659 -0.751417 0.907216
H -2.596775 -1.810972 1.195176
C -3.753843 0.022826 0.971501
H -4.679184 -0.404528 1.378498
C -3.715085 1.308241 0.452376
Cl -5.169793 2.254451 0.419519
C -2.485937 1.849992 -0.031969
C -2.424217 3.16671 -0.577122
H -3.358062 3.736095 -0.674163
C -1.2203 3.698989 -0.952943
H -1.164342 4.714761 -1.371039
