56

Tc -0.216293 1.131251 0.505676
O -0.585425 1.285903 2.137701
S -2.103222 0.937685 -0.813575
N -0.347311 3.300586 -0.26667
S 2.062497 1.442095 0.162547
S 0.13701 -1.103651 0.132983
C -2.636121 2.696712 -1.029116
C -1.801622 3.61922 -0.162496
C 0.12975 3.33984 -1.694884
C -0.119308 4.635397 -2.464832
C 0.473286 4.257786 0.545702
C 0.116381 4.372471 2.02
C 2.993886 -0.07941 0.146372
C 3.514334 -0.582683 -1.058327
C 4.27501 -1.761686 -1.079548
C 4.519633 -2.456991 0.122822
C 3.997303 -1.954989 1.335899
C 3.244352 -0.781658 1.346647
O 5.23931 -3.609472 0.214767
C 5.76948 -4.166121 -0.971432
H 6.303191 -5.088231 -0.674782
H 6.489161 -3.477537 -1.469754
H 4.970302 -4.430388 -1.700481
C -1.419975 -1.96036 -0.020229
C -2.44162 -1.818308 0.939685
C -3.628256 -2.557373 0.844128
C -3.809337 -3.458108 -0.227255
C -2.7879 -3.607136 -1.191439
C -1.609529 -2.867398 -1.087333
O -4.92304 -4.219937 -0.414645
C -5.976348 -4.110599 0.521832
H -6.769615 -4.803745 0.184899
H -6.392267 -3.078372 0.562439
H -5.654243 -4.402057 1.547172
H -3.701711 2.7703 -0.733499
H -2.573856 2.962562 -2.104902
H -2.0858 3.48821 0.898185
H -1.973957 4.688055 -0.429584
H -0.345119 2.483396 -2.212828
H 1.210897 3.105883 -1.65542
H 0.289931 4.513802 -3.487258
H -1.195722 4.875082 -2.573174
H 0.387029 5.512952 -2.016764
H 1.524394 3.923748 0.435946
H 0.39396 5.260394 0.069813
H 0.86565 5.025905 2.508669
H -0.877064 4.833493 2.186936
H 0.135661 3.387562 2.52395
H 3.312752 -0.046058 -1.997472
H 4.664808 -2.131188 -2.037425
H 4.194803 -2.516743 2.260332
H 2.826725 -0.399808 2.289964
H -2.302832 -1.108094 1.768612
H -4.405676 -2.422035 1.607944
H -2.951296 -4.312822 -2.018928
H -0.816059 -2.98382 -1.841025
