77

Ni -0.894834 0.245865 -0.735407
P 0.764115 0.556641 0.599493
O -0.782907 2.131551 -1.240135
O -2.311207 -0.104621 -2.020645
C -3.906266 0.180249 -3.728838
C -2.805053 0.735876 -2.852418
C -2.413546 2.08824 -2.988572
C -1.445476 2.712412 -2.174404
C -1.118505 4.176768 -2.364011
C -1.173404 -1.500457 -0.080442
C -0.495322 -2.643994 -0.396973
C -0.87861 -3.980608 0.202932
C -2.438214 -1.44463 0.67911
C -4.857589 -1.846089 0.768152
C -4.92233 -1.276717 2.051586
C -3.748465 -0.789802 2.648874
C -2.524721 -0.867165 1.969894
C 0.703036 -2.618918 -1.266411
C 0.858099 -1.636951 -2.277798
C 2.018941 -1.572728 -3.059616
C 3.056933 -2.499495 -2.867471
C 2.901941 -3.507255 -1.902503
C 1.739273 -3.572359 -1.122782
C 0.223955 1.371186 2.165255
C -0.850021 2.282532 2.073878
C -1.313848 2.939206 3.221282
C -0.718864 2.686922 4.469078
C 0.351489 1.78415 4.563158
C 0.826693 1.128432 3.415517
C 1.968007 1.772192 -0.096671
C 2.189204 1.788089 -1.487788
C 3.122848 2.673895 -2.044014
C 3.833942 3.559106 -1.217117
C 3.61008 3.552178 0.168698
C 2.680119 2.662686 0.729105
C 1.842669 -0.820929 1.15729
C 3.169666 -0.936566 0.701947
C 3.966519 -2.016046 1.113642
C 3.447774 -2.985853 1.982649
C 2.12305 -2.876644 2.439292
C 1.321114 -1.80457 2.026169
H -2.915534 2.695893 -3.753318
H -1.312759 2.466885 1.092353
H -2.153981 3.645822 3.142503
H -1.092176 3.194833 5.371432
H 0.822929 1.585623 5.537864
H 1.664793 0.420468 3.494408
H 3.581335 -0.185801 0.012835
H 4.998807 -2.099701 0.742203
H 4.073652 -3.832444 2.303705
H 1.707637 -3.634176 3.121271
H 0.282088 -1.734502 2.378034
H 2.503571 2.666366 1.815119
H 4.160716 4.247146 0.820957
H 4.562351 4.258868 -1.654672
H 3.291449 2.676105 -3.131807
H 1.622157 1.100037 -2.129355
H 0.019824 -0.948203 -2.472671
H 2.105519 -0.804329 -3.844243
H 3.969264 -2.4503 -3.481371
H 3.701071 -4.248704 -1.747346
H 1.652906 -4.357129 -0.358539
H -3.581882 -2.35591 -0.921907
H -5.772823 -2.228998 0.289782
H -5.884503 -1.210805 2.582133
H -3.783132 -0.338327 3.652533
H -1.618908 -0.465059 2.445172
H -0.933087 -4.774291 -0.571227
H -1.852318 -3.927462 0.723312
H -0.121913 -4.313114 0.948347
H -4.280867 0.913716 -4.4662
H -3.536507 -0.721299 -4.258111
H -4.746688 -0.152012 -3.084806
H -1.332206 4.727809 -1.424889
H -0.029737 4.284892 -2.549174
H -1.683279 4.640259 -3.193604
C -3.635323 -1.928249 0.08941
