48

Ru -0.035997 -1e-06 -0.25474
N 1.456244 -1.363541 -0.650036
N 2.663297 -1.190158 -0.039086
N 1.456241 1.363544 -0.650031
N 2.663293 1.190169 -0.039074
N 0.611883 -6e-06 1.683095
N 1.956311 -8e-06 1.910938
N -1.560271 -1.293813 0.065797
N -1.560272 1.293809 0.0658
Cl -0.628882 9e-06 -2.545635
C 3.589538 -2.095182 -0.49651
H 4.618449 -2.103903 -0.120026
C 2.935973 -2.89301 -1.426496
H 3.361943 -3.729846 -1.988661
C 1.611392 -2.394375 -1.498063
H 0.770029 -2.691078 -2.134817
C 3.589537 2.095182 -0.496514
H 4.618446 2.103911 -0.120025
C 2.935974 2.893001 -1.426509
H 3.361944 3.72983 -1.988683
C 1.611391 2.394367 -1.49807
H 0.770029 2.691062 -2.134829
C 2.241658 -4e-06 3.255753
H 3.273391 -1.2e-05 3.623755
C 1.020563 1.2e-05 3.916189
H 0.85953 2.1e-05 4.998645
C 0.033782 1.4e-05 2.900154
H -1.058763 2.5e-05 2.98006
C 2.850994 1e-06 0.772336
H 3.888529 0.0 1.150941
C -1.445386 -2.636015 0.197032
H -0.419547 -3.026821 0.246839
C -2.554845 -3.481531 0.248407
H -2.40517 -4.565658 0.347607
C -3.841843 -2.924816 0.161571
H -4.735515 -3.564637 0.183032
C -3.966938 -1.536676 0.056342
H -4.960232 -1.071326 0.003738
C -2.814285 -0.733054 0.020822
C -2.814286 0.73305 0.020823
C -3.966939 1.536671 0.056343
H -4.960232 1.07132 0.003739
C -3.841845 2.924811 0.161572
H -4.735518 3.564631 0.183032
C -2.554847 3.481527 0.248408
H -2.405172 4.565655 0.347607
C -1.445388 2.636011 0.197035
H -0.419549 3.026818 0.246843
