34

Zn 0.518807 -0.740372 -0.277226
N -0.017543 1.301858 -0.24902
C -1.334345 1.509683 -0.000394
C -1.82651 2.81014 0.210502
H -2.890921 2.983738 0.415219
C -0.938097 3.892678 0.157975
H -1.30674 4.915444 0.325434
C 0.417223 3.6578 -0.112917
H 1.142657 4.481446 -0.168781
C 0.839214 2.336583 -0.311358
H 1.889443 2.089269 -0.541585
N -1.558167 -0.887219 -0.214369
C -2.192843 0.290674 0.014493
C -3.580496 0.321121 0.23987
H -4.098577 1.270528 0.42718
C -4.303022 -0.879383 0.225357
H -5.38861 -0.87044 0.402484
C -3.629177 -2.084983 -0.015079
H -4.160706 -3.046596 -0.034029
C -2.245869 -2.042402 -0.228852
H -1.652399 -2.950524 -0.418531
N 2.072856 -0.676407 1.784704
O 2.493974 -0.678865 0.530781
O 2.832988 -0.516086 2.706214
O 0.81652 -0.86425 1.897166
O 3.549488 0.730964 -1.362415
O 0.791262 -2.832716 -0.774292
O 1.513522 -0.647012 -2.191935
H 3.534689 0.29133 -0.468193
H 4.477298 0.726175 -1.662417
H 1.294481 -2.668142 -1.603328
H 1.429579 -3.265316 -0.172598
H 1.080038 -0.181932 -2.932192
H 2.387046 -0.13919 -2.02283
