50

Mo -0.216526 -0.843415 -0.451154
P 0.948155 1.312875 -0.026915
P -2.235997 0.375279 -1.176669
H -2.848455 -0.103245 -2.384015
P -1.023923 -0.827773 1.879199
H -0.980694 -2.080771 2.579514
O -1.858388 -3.489964 -0.989455
O 0.907924 -0.76812 -3.404964
O 2.19477 -2.587038 0.612496
O 3.946876 0.304527 0.567367
C -1.236328 -2.514739 -0.79177
C 0.481442 -0.810217 -2.310758
C 1.322424 -1.912871 0.205348
C 0.076507 2.883933 -0.551993
H -0.567755 3.202144 0.296054
H 0.857061 3.666727 -0.661447
C -0.76811 2.769858 -1.830395
H -0.8732 3.780504 -2.279332
H -0.240193 2.153615 -2.591707
C -2.173921 2.209111 -1.582808
H -2.827505 2.380918 -2.462028
H -2.640041 2.750429 -0.730836
C -3.738093 0.310742 -0.071472
H -4.516173 0.976124 -0.501141
H -4.132315 -0.725975 -0.126569
C -3.447272 0.692639 1.390153
H -4.405868 0.983894 1.87024
H -2.812958 1.607616 1.427661
C -2.817895 -0.425587 2.236261
H -3.375608 -1.371384 2.067296
H -2.910515 -0.19134 3.317913
C -0.077725 0.170548 3.142766
H -0.650618 0.151757 4.093917
H 0.862784 -0.393589 3.320662
C 0.2581 1.616508 2.745356
H 0.5576 2.160722 3.666637
H -0.658493 2.139062 2.38844
C 1.394692 1.761473 1.722906
H 2.254553 1.109669 1.97921
H 1.775143 2.80578 1.713746
C 2.56811 1.577283 -0.919133
H 2.303889 1.696041 -1.990552
H 3.01363 2.53379 -0.568878
C 3.574628 0.446806 -0.790749
H 3.136102 -0.50024 -1.185677
H 4.47444 0.677834 -1.416428
C 4.906096 -0.711352 0.770108
H 5.14403 -0.733645 1.851385
H 5.847002 -0.507029 0.202715
H 4.519337 -1.711724 0.47098
