33

Au 1.134621 -0.763062 0.075285
C 2.876297 1.705843 -0.451722
H 3.676887 0.952703 -0.347211
C 3.099953 3.07115 -0.662564
H 4.130677 3.439674 -0.75413
C 1.99528 3.937739 -0.745323
H 2.1467 5.015981 -0.904884
C 0.701992 3.42362 -0.621304
H -0.194804 4.05482 -0.677766
C 0.533213 2.039345 -0.422731
C -0.736184 1.351516 -0.330631
C -0.768263 -0.024816 -0.22223
C -2.053762 -0.683129 -0.388113
C -3.217243 0.138081 -0.285647
C -3.041388 1.569791 0.142116
H -3.852529 2.226193 -0.250243
C -2.990023 2.932109 2.075195
H -2.07182 3.499012 1.80592
H -3.038797 2.828219 3.175021
H -3.876316 3.511954 1.724857
C -2.22644 -2.03725 -0.76484
H -1.340012 -2.67718 -0.857367
C -3.503822 -2.552451 -1.007139
H -3.612771 -3.608625 -1.296296
C -4.641228 -1.735198 -0.892311
H -5.643753 -2.146888 -1.081982
C -4.490104 -0.387185 -0.535982
H -5.371645 0.267024 -0.446028
N 1.626593 1.22161 -0.34264
O -1.8481 2.134217 -0.453386
O -2.980731 1.620118 1.532952
Cl 3.433014 -1.353569 0.355878
Cl 0.533337 -2.891253 0.726707
