61

Fe 0.000134 -3.8e-05 -0.419565
Cl -0.261524 -1.661024 -2.052515
N 0.279117 1.331833 0.831498
C 1.449669 1.378066 1.514997
C 2.272519 0.130086 1.345939
C 1.744214 2.462302 2.346325
C 0.78984 3.485452 2.499068
C -0.443972 3.382632 1.829853
C -0.67076 2.290335 0.98803
C -1.91916 2.000757 0.201303
N -2.052439 0.521159 0.009655
C -3.202188 0.168788 -0.959633
C -4.506476 0.879969 -0.537657
C -2.842085 0.592956 -2.388491
C -3.421795 -1.35354 -0.938271
H 1.943804 -0.583645 2.130082
H 3.346024 0.319888 1.542044
H 2.708521 2.502305 2.873741
H 1.000594 4.348972 3.14605
H -1.223923 4.147716 1.955477
H -1.795595 2.445284 -0.807262
H -2.806802 2.446061 0.701181
H -4.787695 0.687018 0.518506
H -4.459206 1.975583 -0.693424
H -5.334485 0.49821 -1.165818
H -2.643875 1.677447 -2.476655
H -1.945992 0.051132 -2.743748
H -3.700877 0.351651 -3.046586
H -3.851872 -1.717433 0.015799
H -4.143287 -1.612299 -1.737537
H -2.471632 -1.881743 -1.155815
Cl 0.261075 1.660674 -2.052757
N 2.0525 -0.521139 0.009628
N -0.278804 -1.331749 0.831737
C -1.449417 -1.377981 1.515121
C -2.272211 -0.129953 1.346074
H -1.943242 0.583837 2.130058
H -3.345679 -0.319643 1.54245
C -1.744086 -2.462319 2.346266
C -0.789783 -3.48556 2.498912
C 0.444077 -3.382744 1.829795
C 0.670984 -2.29033 0.988148
C 1.919423 -2.000716 0.201478
C 3.202033 -0.168666 -0.959918
C 4.506607 -0.879237 -0.537864
H 4.787819 -0.68587 0.51823
H 4.459787 -1.974909 -0.693338
H 5.334412 -0.497309 -1.166189
C 2.841854 -0.593316 -2.388606
H 2.644076 -1.677915 -2.47647
H 1.94552 -0.051896 -2.743864
H 3.70045 -0.35186 -3.046909
C 3.42111 1.353723 -0.93896
H 3.850917 1.718053 0.015065
H 4.142619 1.612509 -1.738205
H 2.470796 1.881529 -1.156809
H 1.795996 -2.445477 -0.807009
H 2.807096 -2.445796 0.701502
H 1.223951 -4.147919 1.955345
H -1.000637 -4.349167 3.145747
H -2.70844 -2.502349 2.873592
