79

Cd 0.0 -1e-06 1e-06
N 1.948397 -1.117093 -0.771693
N 5.645845 -0.427328 1.05482
N 6.940321 -0.186222 1.370102
N 6.902482 -1.180029 -0.603555
N 7.346247 -1.707194 -1.813632
H 6.844546 -1.263292 -2.592924
H 7.182808 -2.721787 -1.840175
N 11.095041 0.160275 1.729896
N -1.171593 -2.004641 0.027383
N -1.715471 -3.539544 1.722051
H -1.637414 -3.842037 2.696133
N -2.54408 -3.855329 -0.403648
H -3.101265 -4.394954 -1.071785
S -0.142419 -1.468909 2.407165
S -3.290233 -5.684613 1.413706
S -1.991713 -2.297185 -2.499725
C 1.825693 -1.935971 -1.838058
H 0.801915 -2.095859 -2.223427
C 2.944077 -2.540981 -2.419798
H 2.818657 -3.215637 -3.278534
C 4.215872 -2.276014 -1.894917
H 5.089779 -2.763734 -2.344888
C 4.349508 -1.405576 -0.79003
C 3.154584 -0.855787 -0.256783
H 3.207782 -0.186796 0.618754
C 5.600842 -1.031781 -0.130492
C 7.716409 -0.626126 0.37707
C 9.17824 -0.520734 0.393796
C 10.037562 -0.883394 -0.666103
H 9.61891 -1.285121 -1.597427
C 11.417619 -0.715 -0.500279
H 12.116051 -0.985794 -1.306224
C 11.897347 -0.192041 0.709981
H 12.981779 -0.048918 0.865819
C 9.77835 -0.000191 1.57259
H 9.123954 0.291089 2.411412
C -1.060784 -2.387167 1.320222
C -2.500372 -4.326421 0.892048
C -1.886129 -2.719267 -0.887946
N -1.948397 1.117092 0.771693
N -5.645845 0.427341 -1.054828
N -6.940321 0.186234 -1.370111
N -6.902481 1.180028 0.603553
N -7.346245 1.707181 1.813635
H -6.84454 1.263278 2.592923
H -7.182812 2.721775 1.840185
N -11.095041 -0.160266 -1.729903
N 1.171593 2.00464 -0.027381
N 1.71547 3.539544 -1.722048
H 1.637414 3.842037 -2.69613
N 2.544079 3.855328 0.403652
H 3.101264 4.394953 1.071789
S 0.142419 1.468909 -2.407163
S 3.290233 5.684613 -1.413702
S 1.991712 2.297183 2.499728
C -1.825694 1.935969 1.83806
H -0.801916 2.095856 2.22343
C -2.944078 2.540979 2.419798
H -2.818658 3.215634 3.278536
C -4.215873 2.276014 1.894916
H -5.089779 2.763735 2.344886
C -4.349508 1.405578 0.790027
C -3.154584 0.855788 0.256782
H -3.207781 0.186798 -0.618757
C -5.600841 1.031785 0.130488
C -7.716408 0.62613 -0.377075
C -9.17824 0.520735 -0.3938
C -10.037561 0.883386 0.666103
H -9.618908 1.285106 1.59743
C -11.417617 0.71499 0.50028
H -12.116049 0.985777 1.306228
C -11.897346 0.192041 -0.709984
H -12.981778 0.048917 -0.865821
C -9.778349 0.0002 -1.572597
H -9.123955 -0.291072 -2.411422
C 1.060784 2.387167 -1.32022
C 2.500371 4.326421 -0.892044
C 1.886128 2.719265 0.887948
