68

Ag -0.63135 -1.389589 -0.403857
P 1.555806 -0.631003 -0.00396
O -2.569348 -1.898629 1.333075
O -2.377879 -2.609814 -0.792858
O -0.561525 1.252359 -1.97309
N -1.619874 2.045164 -0.083361
C 1.869311 1.18968 0.059404
C 3.150221 1.696516 0.377457
H 3.967263 1.00418 0.613685
C 3.415651 3.072171 0.386135
H 4.425675 3.432761 0.632244
C 2.393246 3.978398 0.070152
H 2.589752 5.06119 0.062513
C 1.119286 3.49551 -0.248657
H 0.317069 4.197773 -0.521028
C 0.83936 2.11142 -0.259155
C -0.517139 1.716869 -0.823072
C -1.538019 2.322702 1.367968
H -0.476332 2.150262 1.635634
C -1.878908 3.781124 1.696413
H -1.207864 4.487175 1.169842
H -1.779006 3.959453 2.785628
H -2.924605 4.025166 1.417376
C -2.383725 1.33644 2.184075
H -2.196465 0.28275 1.89733
H -3.469223 1.528865 2.059997
H -2.153988 1.456869 3.261786
C -2.963787 2.049315 -0.716231
H -3.635171 2.457808 0.066668
C -3.462351 0.643565 -1.062882
H -3.447967 -0.008913 -0.170139
H -2.830545 0.182195 -1.844526
H -4.50366 0.695333 -1.440155
C -3.011274 3.016303 -1.905192
H -2.691541 4.033753 -1.601474
H -4.046875 3.082746 -2.294082
H -2.352489 2.665746 -2.721766
C -2.987596 -2.551751 0.343534
C -4.314253 -3.295361 0.426809
H -4.244109 -4.281933 -0.069933
H -5.084067 -2.710535 -0.118171
H -4.634865 -3.410662 1.477903
C 1.980244 -1.299881 1.738975
C 1.896315 -2.835471 1.669369
H 1.936221 -3.248691 2.699119
H 2.738595 -3.276195 1.100271
H 0.943787 -3.171531 1.209192
C 3.328161 -0.875376 2.340436
H 3.456745 -1.391098 3.31584
H 3.365966 0.211613 2.542979
H 4.192417 -1.15058 1.707311
C 0.841504 -0.770007 2.635329
H 1.001958 -1.126133 3.67512
H -0.153026 -1.129173 2.298787
H 0.825375 0.33912 2.660524
C 2.712617 -1.263277 -1.394713
C 2.156602 -2.621034 -1.867005
H 2.771429 -2.989704 -2.715353
H 1.108408 -2.526777 -2.217241
H 2.180648 -3.391882 -1.073065
C 2.567332 -0.23886 -2.538316
H 2.994813 -0.671673 -3.467187
H 3.108777 0.701497 -2.317784
H 1.506029 0.024777 -2.727112
C 4.188161 -1.421698 -1.002581
H 4.763876 -1.744185 -1.896375
H 4.336761 -2.193743 -0.222274
H 4.63999 -0.473152 -0.654393
