77

Pd 0.076953 1.200925 -0.27816
Cl -1.070914 1.788483 1.671518
Cl 1.261054 0.634243 -2.24656
N -1.236675 -1.418585 0.365873
N 0.276114 3.228406 -0.788254
N 0.922629 3.587259 -1.908717
H 1.291666 2.799156 -2.478949
C -0.095146 -0.668122 0.270505
C -0.956634 -2.670382 0.909879
H -1.738332 -3.418848 1.058807
C -2.540935 -1.027867 -0.114963
C -3.558915 -0.730725 0.822534
C -4.826588 -0.393001 0.310599
H -5.639477 -0.151205 1.0107
C -5.063168 -0.345386 -1.066788
H -6.059968 -0.069097 -1.443246
C -4.035826 -0.647385 -1.969231
H -4.23372 -0.61027 -3.049675
C -2.752077 -1.004069 -1.518099
C -3.336484 -0.801287 2.32866
H -2.242128 -0.765185 2.502074
C -3.943042 0.399456 3.070602
H -3.578663 1.349809 2.636856
H -3.64781 0.372194 4.139087
H -5.052304 0.390413 3.037626
C -3.888255 -2.121168 2.900752
H -4.985959 -2.186885 2.750071
H -3.691095 -2.187442 3.990423
H -3.437504 -3.012225 2.420341
C -1.661862 -1.413431 -2.500944
H -0.686695 -1.119429 -2.066676
C -1.649717 -2.942528 -2.689092
H -1.513224 -3.475069 -1.726473
H -0.819106 -3.24287 -3.360948
H -2.600887 -3.296537 -3.138964
C -1.747715 -0.688132 -3.848081
H -2.630303 -1.002087 -4.443855
H -0.843448 -0.910786 -4.448077
H -1.78961 0.409535 -3.706015
C -0.116635 4.364602 -0.184365
H -0.66741 4.295392 0.760802
C 0.96229 4.932849 -2.05283
H 1.452617 5.399331 -2.913977
C 0.295901 5.47723 -0.950549
H 0.131713 6.536975 -0.732994
N 0.901802 -1.475142 0.748863
C 0.387053 -2.701862 1.161449
H 1.025807 -3.475737 1.593432
C 2.310667 -1.159939 0.747808
C 2.82574 -0.317479 1.760439
C 4.209081 -0.055111 1.737847
H 4.642378 0.597668 2.509884
C 5.035684 -0.610768 0.755246
H 6.114394 -0.391476 0.756935
C 4.494902 -1.441771 -0.23323
H 5.152157 -1.865824 -1.006336
C 3.11926 -1.733599 -0.265831
C 1.952595 0.247782 2.871305
H 0.893569 0.159608 2.56072
C 2.19901 1.744379 3.106995
H 2.076338 2.313495 2.16462
H 1.456463 2.138366 3.828558
H 3.211245 1.945676 3.515573
C 2.132563 -0.573015 4.161128
H 3.177869 -0.518577 4.531448
H 1.466169 -0.190668 4.961296
H 1.89084 -1.643331 3.998101
C 2.553552 -2.657753 -1.339463
H 1.457733 -2.490666 -1.37953
C 2.801638 -4.13458 -0.976166
H 2.370238 -4.404631 0.00751
H 2.354274 -4.805025 -1.738497
H 3.889652 -4.348882 -0.931104
C 3.104362 -2.353003 -2.740746
H 4.182403 -2.602244 -2.82444
H 2.569789 -2.963303 -3.497113
H 2.963232 -1.285371 -2.993497
