67

Pd 0.213246 -0.180972 0.071323
N -2.67499 0.43911 -0.098799
N -1.441941 2.261761 -0.020896
N 1.965954 -1.351756 0.190387
N 2.829223 -1.378641 -0.848161
H 2.554481 -0.808677 -1.670382
Cl -0.352212 -0.836184 2.243104
Cl 0.835649 0.45212 -2.121688
C -1.411066 0.910637 -0.023482
C -2.822527 2.782302 0.016726
H -2.962823 3.579641 -0.738663
H -3.027519 3.219664 1.018206
C -3.659972 1.525779 -0.265964
H -4.507278 1.399124 0.435467
H -4.06643 1.502546 -1.300739
C -0.315023 3.142794 0.089483
C 0.277035 3.362968 1.355669
C 1.377684 4.236947 1.421187
H 1.852494 4.411376 2.400231
C 1.877227 4.898156 0.285361
C 1.228145 4.689021 -0.945269
H 1.591099 5.212974 -1.844186
C 0.129206 3.822565 -1.06988
C -0.250008 2.698776 2.598692
H 0.193399 3.153268 3.504784
H -0.031911 1.608768 2.611732
H -1.353369 2.788108 2.677124
C -0.551316 3.625838 -2.399091
H -0.622387 2.547446 -2.644744
H 0.013843 4.126116 -3.207971
H -1.578986 4.049294 -2.404878
C 3.087453 5.792993 0.379044
H 4.018076 5.219696 0.177458
H 3.191229 6.237453 1.388474
H 3.046757 6.61641 -0.361251
C -3.07503 -0.936257 -0.17899
C -3.650127 -1.543697 0.963377
C -4.04985 -2.886546 0.863595
H -4.48543 -3.373643 1.750913
C -3.902072 -3.623504 -0.326095
C -3.364861 -2.971148 -1.449268
H -3.26858 -3.521767 -2.398985
C -2.953323 -1.626131 -1.407804
C -3.821562 -0.780263 2.249911
H -2.855425 -0.333735 2.561535
H -4.17239 -1.447666 3.059495
H -4.566355 0.038798 2.151586
C -2.409898 -0.953897 -2.639976
H -2.623509 -1.556918 -3.542807
H -1.311563 -0.798945 -2.577306
H -2.849843 0.05362 -2.78975
C -4.293406 -5.078615 -0.385487
H -4.502793 -5.404947 -1.423018
H -5.189637 -5.287128 0.232262
H -3.475333 -5.722796 0.003053
C 2.447012 -2.132284 1.162415
H 1.876751 -2.231294 2.093222
C 3.686375 -2.700098 0.741891
C 4.642246 -3.577402 1.308216
H 4.497162 -3.985062 2.319488
C 5.765367 -3.908065 0.553222
H 6.522579 -4.587892 0.971203
C 5.956907 -3.382925 -0.755448
H 6.85807 -3.669265 -1.318569
C 5.036026 -2.516746 -1.343427
H 5.187612 -2.112997 -2.354517
C 3.898118 -2.181376 -0.578794
