29

C -0.191419 0.723989 -1.339567
C 1.119131 -1.175057 -0.805367
C 1.864249 0.000112 -0.503184
C 3.164515 0.000161 0.052255
C -2.314065 1.497821 0.781656
C -2.314095 -1.498372 0.780704
C -0.382994 -0.000354 1.422925
C -2.869421 0.000452 -1.186499
C -0.191336 -0.723936 -1.339626
C 1.707689 -2.411155 -0.555579
C 3.027328 -2.44296 -0.012175
C 3.744434 -1.284735 0.29
C 3.744285 1.285101 0.290125
C 3.027042 2.44327 -0.011941
C 1.707408 2.411362 -0.555353
C 1.118993 1.17522 -0.805254
Fe -1.616487 -6e-05 0.102061
H -0.734833 1.331749 -2.07732
H -0.734784 -1.331724 -2.077328
H 1.17795 -3.353964 -0.761234
H 3.492812 -3.422325 0.177795
H 4.76004 -1.357556 0.708838
H 4.759881 1.358001 0.708971
H 3.49241 3.422672 0.178121
H 1.177561 3.354128 -0.760924
O -2.779779 2.458425 1.237975
O -2.779706 -2.459307 1.236427
O 0.353649 -0.000773 2.312703
O -3.685771 0.001038 -2.008258
