53

Pt 0.083219 -0.950596 -0.124049
Cl 1.743121 -2.394616 -1.040095
Cl -1.378103 -2.820857 0.09923
P -1.583512 0.372562 0.541264
O -1.779843 0.655492 2.129823
C -1.6168 -0.45443 3.060617
H -1.865533 -1.408822 2.548277
H -2.372522 -0.277128 3.851649
C -0.207924 -0.483789 3.621312
H -0.126374 -1.270294 4.398399
H 0.060597 0.492021 4.072199
H 0.522779 -0.714326 2.819587
O -3.10918 -0.067568 0.154706
C -3.435749 -0.50387 -1.189029
H -2.54431 -0.982447 -1.648171
H -3.70361 0.396657 -1.785138
C -4.579256 -1.49125 -1.103975
H -4.882446 -1.809169 -2.121602
H -5.457745 -1.041721 -0.59958
H -4.250823 -2.383534 -0.53707
P 1.562375 0.717557 -0.172285
O -1.433853 1.874521 -0.07363
C -2.383474 2.913325 0.258275
H -2.040413 3.403989 1.194074
H -3.376377 2.457494 0.458267
C -2.44314 3.889241 -0.899109
H -3.140198 4.718581 -0.665065
H -2.795787 3.385163 -1.820935
H -1.442692 4.320015 -1.101435
O 3.144863 0.346726 -0.012196
C 3.58954 -0.534668 1.050723
H 3.778473 0.087099 1.953557
H 2.785987 -1.266009 1.282826
C 4.836381 -1.252206 0.58162
H 5.227054 -1.901507 1.390528
H 5.628126 -0.531052 0.29642
H 4.588454 -1.885009 -0.292168
O 1.282896 1.801432 1.012744
C 2.074888 3.009825 1.119309
H 3.050162 2.860668 0.609558
H 2.274573 3.138706 2.203005
C 1.323265 4.197946 0.547626
H 1.922725 5.12267 0.670942
H 0.355688 4.339044 1.06839
H 1.126138 4.042353 -0.530214
O 1.646992 1.645208 -1.50842
C 1.538239 0.999883 -2.810397
H 2.256737 1.538707 -3.459831
H 1.868876 -0.058276 -2.729855
C 0.118991 1.093634 -3.336638
H 0.068327 0.682028 -4.364811
H -0.229821 2.145325 -3.356718
H -0.570147 0.508168 -2.695492
