57

Cu 0.0 -4e-06 -0.057673
N -1.822215 -0.025398 0.729442
N -2.422968 -1.053733 1.404548
N -4.547836 -0.226583 0.820998
N -3.991616 0.825432 0.18463
N -0.696441 1.709166 -0.913111
O -4.331583 -2.177374 2.052809
C -1.544189 -1.918363 2.171815
H -0.715926 -2.267684 1.522088
H -2.137453 -2.773584 2.537621
H -1.113693 -1.366269 3.033109
C -3.814104 -1.241171 1.46992
C -6.003672 -0.260179 0.861573
H -6.401949 -0.22874 -0.17131
H -6.383995 0.618395 1.420469
H -6.313184 -1.191103 1.365582
C -2.671812 0.853235 0.130751
C -2.016332 1.913711 -0.664889
C -2.706855 3.030929 -1.156748
H -3.776972 3.139996 -0.936855
C -1.993045 3.963398 -1.917328
H -2.496723 4.85519 -2.318419
C -0.629804 3.747929 -2.168875
H -0.049734 4.461084 -2.771446
C 0.004072 2.601359 -1.657127
C 1.454507 2.302107 -1.900824
H 1.582165 1.252843 -2.236074
H 2.039863 2.421004 -0.965165
H 1.887357 2.976798 -2.661326
N 1.82221 0.025392 0.729456
N 2.422958 1.053725 1.404567
C 1.544168 1.918371 2.171804
H 0.715952 2.26774 1.522043
H 2.137444 2.773561 2.537662
H 1.113605 1.36627 3.03306
C 3.814093 1.241158 1.46996
N 4.54783 0.226589 0.821014
N 3.991616 -0.825428 0.184645
C 2.671811 -0.853241 0.130769
C 2.016338 -1.913717 -0.664875
N 0.696448 -1.709173 -0.913105
C -0.004059 -2.601367 -1.657125
C 0.629821 -3.747936 -2.16887
C 1.993061 -3.963402 -1.917316
C 2.706865 -3.030933 -1.156732
H 3.776981 -3.139998 -0.936833
H 2.496742 -4.855193 -2.318406
H 0.049755 -4.461091 -2.771446
C -1.454494 -2.302116 -1.900831
H -1.58215 -1.252854 -2.236087
H -2.039854 -2.421009 -0.965174
H -1.887339 -2.97681 -2.661332
C 6.003667 0.260209 0.861562
H 6.401925 0.228738 -0.171327
H 6.384014 -0.618338 1.420485
H 6.313173 1.191155 1.365534
O 4.331566 2.1774 2.052792
