42

Zn -0.015796 -0.487324 -0.034325
O -1.70799 -0.342972 1.198678
O -1.167939 -1.374644 -1.422079
O 1.617768 -0.803486 -1.2446
O 0.971594 -1.184601 1.558982
N 0.149955 1.614721 -0.245566
N -0.678879 2.076693 1.886688
H -1.074871 1.113488 1.915716
H -0.997266 2.760826 2.568657
C -3.976327 -0.181331 1.867432
H -3.891927 0.906609 2.073404
H -3.777475 -0.703446 2.825849
H -5.006481 -0.405947 1.535261
C -2.921154 -0.574151 0.853542
C -3.315723 -1.153695 -0.370713
C -2.432797 -1.524136 -1.421126
C -3.012643 -2.157856 -2.670619
H -2.697537 -1.570133 -3.556707
H -4.115303 -2.235531 -2.650922
H -2.577482 -3.170752 -2.795946
C 3.853158 -1.219882 -1.897626
H 3.998529 -0.204371 -2.321706
H 3.510333 -1.864246 -2.73252
H 4.821637 -1.593483 -1.516806
C 2.771082 -1.164314 -0.835539
C 3.104758 -1.506156 0.499696
C 2.209099 -1.503347 1.596898
C 2.72314 -1.917249 2.96229
H 2.146479 -2.796813 3.31574
H 2.526144 -1.101278 3.687459
H 3.801256 -2.162185 2.967616
C 0.680713 2.034084 -1.417531
H 0.929086 1.227527 -2.125841
C 0.936204 3.371812 -1.707554
H 1.368089 3.658194 -2.675716
C 0.632573 4.327484 -0.715503
H 0.822128 5.39729 -0.893594
C 0.089189 3.915987 0.494501
H -0.158048 4.641519 1.283589
C -0.159905 2.529312 0.718365
H 4.142731 -1.80603 0.698733
H -4.389342 -1.325163 -0.527291
