57

Os -1.9e-05 -0.703085 0.000245
O 0.000207 -0.946091 1.736734
O 0.000101 -0.945725 -1.73631
O 1.511805 0.632207 0.000351
O 1.675934 -2.031988 0.0001
O 5.111522 0.163663 1.2e-05
O -1.51179 0.632181 0.000331
O -1.675879 -2.031967 0.000123
O -5.11151 0.163613 -0.000341
C 2.720349 0.073821 0.000256
C 2.774004 -1.36945 0.000199
C 4.064825 -2.014443 0.000123
C 4.229366 -3.422617 0.000142
H 3.323807 -4.045656 0.000185
C 5.506793 -3.972543 0.00012
H 5.637095 -5.064542 0.000142
C 6.645327 -3.129373 7.1e-05
H 7.652628 -3.571967 5.5e-05
C 6.509372 -1.741797 4.3e-05
H 7.379031 -1.069993 1e-06
C 5.214718 -1.187245 6.2e-05
C 3.911664 0.818609 3.9e-05
C 4.053197 2.27399 -0.000265
C 2.921915 3.131497 -0.000171
H 1.918967 2.688177 0.000184
C 3.092607 4.52056 -0.000528
H 2.204796 5.17085 -0.000455
C 4.37765 5.085627 -0.000967
H 4.503286 6.179007 -0.001244
C 5.503918 4.245025 -0.001049
H 6.515759 4.677846 -0.001391
C 5.347932 2.856241 -0.0007
H 6.231572 2.204634 -0.000775
C -2.720358 0.073803 7.2e-05
C -2.773992 -1.369455 -9.1e-05
C -4.06478 -2.014484 -0.000314
C -4.229298 -3.422661 -0.000433
H -3.323732 -4.04569 -0.000312
C -5.506718 -3.972602 -0.000713
H -5.637007 -5.064602 -0.00081
C -6.645264 -3.129447 -0.000881
H -7.652558 -3.572056 -0.001106
C -6.509332 -1.741869 -0.000764
H -7.379002 -1.070079 -0.000886
C -5.214686 -1.187299 -0.00047
C -3.911674 0.818585 -2.6e-05
C -4.053243 2.273961 0.000189
C -2.921985 3.131501 0.000502
H -1.91902 2.688222 0.000568
C -3.092724 4.520558 0.000725
H -2.204936 5.170878 0.000974
C -4.377787 5.08558 0.000635
H -4.50346 6.178956 0.000812
C -5.504029 4.244943 0.000318
H -6.515884 4.677733 0.000244
C -5.347998 2.856165 9.5e-05
H -6.231614 2.204527 -0.000149
