82

Fe -0.044249 0.151344 0.859924
P 1.399464 0.793743 -0.717752
P -1.602363 0.250381 -0.747039
P 0.48103 -1.874754 0.349307
P 2.130816 -3.323928 0.458584
P -0.040419 -3.986952 0.659565
P 0.743557 -3.279223 -1.320444
C -0.514135 -0.536226 2.817074
C 0.857299 -0.052367 2.763695
C 0.813342 1.337583 2.403237
C -0.567427 1.710807 2.201564
C -1.38478 0.543632 2.461628
C -0.953687 -1.859076 3.358492
H -0.176719 -2.640065 3.256474
H -1.873687 -2.232576 2.869901
H -1.176833 -1.756499 4.442257
C 2.068296 -0.814403 3.20142
H 1.908694 -1.908227 3.149667
H 2.3195 -0.56679 4.254884
H 2.95325 -0.5843 2.579006
C 1.951548 2.306308 2.49643
H 2.01249 2.99283 1.631514
H 2.923277 1.791684 2.607423
H 1.815752 2.933861 3.402878
C -1.089038 3.110766 2.12032
H -1.975107 3.196542 1.463771
H -0.320901 3.826588 1.776593
H -1.408772 3.437613 3.134086
C -2.872248 0.554213 2.621135
H -3.356893 1.332331 2.005532
H -3.121356 0.7669 3.683428
H -3.338402 -0.417404 2.36958
C 0.623386 0.408342 -2.377479
H 1.205464 0.89555 -3.184539
H 0.664368 -0.690707 -2.521963
C -0.821992 0.880483 -2.324189
H -1.412481 0.579703 -3.211104
H -0.871146 1.986438 -2.277687
C 3.034904 -0.050584 -0.788529
C 3.983289 0.218754 0.222387
H 3.763454 0.977024 0.986117
C 5.213395 -0.451128 0.247974
H 5.941806 -0.224632 1.040958
C 5.515178 -1.407342 -0.735882
H 6.477245 -1.940195 -0.71285
C 4.587909 -1.67092 -1.753684
H 4.81916 -2.409494 -2.535519
C 3.357467 -0.993876 -1.786043
H 2.656638 -1.214224 -2.60265
C 1.836053 2.571877 -0.951235
C 3.091945 2.983789 -1.442576
H 3.879581 2.242348 -1.64081
C 3.340542 4.344789 -1.679958
H 4.324918 4.658006 -2.058955
C 2.343455 5.303182 -1.437852
H 2.545753 6.368419 -1.624148
C 1.08887 4.898213 -0.954628
H 0.303077 5.643764 -0.759495
C 0.841021 3.53995 -0.710212
H -0.125896 3.216599 -0.302441
C -2.299982 -1.401991 -1.200018
C -2.768137 -2.22264 -0.150282
H -2.687255 -1.866624 0.886964
C -3.31758 -3.485185 -0.415694
H -3.685784 -4.106811 0.41411
C -3.381564 -3.958591 -1.736017
H -3.79885 -4.954309 -1.946686
C -2.905636 -3.157573 -2.784669
H -2.9474 -3.52348 -3.821369
C -2.37628 -1.883536 -2.521704
H -2.02179 -1.274765 -3.365227
C -3.126732 1.293428 -0.650832
C -4.401398 0.72359 -0.450204
H -4.513211 -0.367057 -0.374979
C -5.53878 1.539902 -0.355616
H -6.525379 1.077855 -0.201627
C -5.423626 2.933809 -0.465776
H -6.317518 3.571004 -0.394244
C -4.162002 3.51002 -0.682147
H -4.06195 4.600782 -0.786694
C -3.02303 2.696656 -0.772132
H -2.047003 3.170463 -0.951498
