51

Hg -2.997945 0.000263 -0.000102
Br -3.312545 0.461207 2.443941
O 5.493207 -1.917689 1.143072
O 5.084154 -3.999671 0.023738
H 5.554905 -2.892662 0.649851
N -0.891233 -1.542975 0.314371
C 3.854556 -0.324204 1.744685
H 3.819964 -0.416971 2.850626
H 2.877701 0.05552 1.397849
H 4.653535 0.4043 1.506481
C 4.217188 -1.646587 1.13472
C 3.292372 -2.548086 0.551672
C 3.834865 -3.773256 -0.003319
C 2.951948 -4.840958 -0.601421
H 2.847855 -4.678008 -1.694681
H 1.936283 -4.854224 -0.165731
H 3.447098 -5.820102 -0.463325
C 1.845925 -2.237514 0.483325
C 1.088795 -1.914891 1.632762
H 1.554059 -1.93618 2.628911
C -0.261327 -1.5676 1.501231
H -0.871256 -1.276783 2.375192
C -0.199128 -1.875681 -0.788393
H -0.758013 -1.825817 -1.740281
C 1.155999 -2.222416 -0.751779
H 1.684266 -2.452122 -1.688582
Br -3.31251 -0.460555 -2.444172
O 5.494426 1.918206 -1.142437
O 5.084168 4.000827 -0.024819
H 5.555458 2.893798 -0.64993
N -0.890111 1.541612 -0.314164
C 3.856762 0.323153 -1.742567
H 3.823922 0.41467 -2.848666
H 2.879423 -0.05618 -1.396699
H 4.655358 -0.405133 -1.502375
C 4.21863 1.646256 -1.133685
C 3.293258 2.547666 -0.551351
C 3.835004 3.773635 0.002557
C 2.951516 4.841266 0.599894
H 1.935837 4.853701 0.164222
H 3.446157 5.820582 0.461197
H 2.847497 4.678938 1.69326
C 1.846902 2.236559 -0.483016
C 1.089996 1.913429 -1.632441
H 1.555415 1.93443 -2.628528
C -0.260101 1.565993 -1.500969
H -0.869944 1.274942 -2.374914
C -0.198194 1.87468 0.78861
H -0.757206 1.824953 1.740433
C 1.156866 2.221685 0.752033
H 1.685022 2.451873 1.68878
