43

Co -3.6e-05 -0.00019 -0.000297
O 0.590035 -1.393922 -1.14535
O 1.512537 0.038648 1.145304
O -0.722929 -1.329778 1.144988
O -1.501702 0.185869 -1.145907
O -0.790196 1.290598 1.144996
O 0.912078 1.207421 -1.145617
C 1.712289 -1.989688 -1.00133
C 2.669947 -1.72038 0.000255
C 2.518977 -0.736979 1.001713
C 1.981421 -3.065877 -2.030338
C 3.609728 -0.537198 2.031199
C -2.579192 -0.48743 -1.001616
C -2.825278 -1.451082 0.000199
C -1.898209 -1.81275 1.001471
C -3.64559 -0.182196 -2.03075
C -2.271173 -2.857102 2.030898
C -0.621002 2.549934 1.001559
C 0.155679 3.172069 0.000299
C 0.867364 2.477204 -1.001445
C -1.339188 3.394972 2.030928
C 1.664693 3.248241 -2.030644
H 3.592586 -2.314765 0.000399
H 1.989147 -2.611309 -3.041942
H 1.15308 -3.802733 -2.017497
H 2.940432 -3.586677 -1.856646
H 4.481054 -1.194142 1.857102
H 3.198913 -0.733654 3.042486
H 3.937156 0.522002 2.019686
H -3.801669 -1.952298 0.000524
H -3.256781 -0.419218 -3.042043
H -3.867137 0.904101 -2.020141
H -4.577262 -0.749984 -1.855498
H -2.237158 -2.402752 3.042076
H -1.51729 -3.669987 2.020403
H -3.275443 -3.283632 1.855916
H 0.209661 4.268264 0.000605
H -1.205708 4.477971 1.856585
H -0.963619 3.137577 3.042241
H -2.420252 3.149177 2.019471
H 1.264943 3.030006 -3.0419
H 2.716275 2.897096 -2.020169
H 1.63867 4.33898 -1.85536
