77

Re -3.579383 -1.022119 -0.6301
S -5.283995 1.014481 -0.365717
S -3.770087 -1.156003 2.03016
O -6.093706 -2.936362 -0.702675
O -1.545855 -3.355587 -0.634378
O -3.543378 -0.678741 -3.706332
O 8.757253 -1.570802 0.405478
N -1.082944 1.016673 -0.312879
N 3.941201 -0.548048 -0.162357
N 6.726568 0.069617 -0.418202
N -3.641158 2.800423 1.007261
N -3.692395 3.103307 -1.179502
N -2.610914 1.267751 2.773204
N -1.272754 -0.480298 2.956625
C -5.170379 -2.233681 -0.680568
C -2.339778 -2.493096 -0.652273
C -3.562444 -0.831599 -2.54524
C -2.000972 0.276599 -0.437447
C 0.149073 1.698927 -0.155482
H 0.008749 2.491422 0.61021
H 0.384278 2.211179 -1.114566
C 1.28301 0.748652 0.246789
H 1.068651 0.357658 1.263936
H 2.218599 1.338333 0.335214
C 1.509016 -0.415348 -0.718863
H 0.607235 -1.061469 -0.772533
H 1.658931 -0.026058 -1.750092
C 2.694963 -1.291303 -0.300348
H 2.468458 -1.741203 0.691195
H 2.795111 -2.151466 -1.014511
C 4.513259 -0.135772 -1.437909
H 3.756554 0.430522 -2.018305
H 4.811333 -1.024775 -2.056906
C 5.73824 0.755177 -1.231695
H 6.183657 0.992542 -2.218234
H 5.405999 1.720822 -0.766919
C -4.176562 2.321918 -0.152024
C -2.827623 3.876268 0.70042
H -2.319282 4.441676 1.486526
C -2.846729 4.069268 -0.660345
H -2.360857 4.81762 -1.293392
C -3.979018 2.888311 -2.585906
H -4.168939 3.856849 -3.085993
H -4.87344 2.238946 -2.64646
H -3.136558 2.367845 -3.085358
C 6.165271 -0.363381 0.861394
H 6.930307 -0.928633 1.420963
H 5.863613 0.525537 1.472801
C 4.942775 -1.245867 0.634911
H 5.277201 -2.198662 0.143324
H 4.496311 -1.513712 1.6156
C 8.054473 0.535289 -0.443346
C 8.398595 1.811289 -0.936227
H 7.598927 2.491507 -1.259672
C 9.734175 2.241452 -1.012063
H 9.961447 3.243498 -1.405336
C 10.761447 1.401406 -0.573793
H 11.811457 1.726107 -0.619735
C -2.536402 -0.079469 2.571926
C -1.402404 1.700348 3.28791
H -1.250014 2.747291 3.56469
C -0.560433 0.620052 3.405359
H 0.458414 0.535128 3.794668
C -0.763637 -1.83445 2.844698
H -0.28129 -2.142914 3.791929
H -0.033657 -1.911688 2.012464
H -1.626588 -2.491418 2.62124
C 10.451857 0.122641 -0.075102
H 11.265418 -0.539593 0.249419
C 9.121604 -0.322462 -0.019127
C 9.772768 -2.478586 0.783818
H 9.262526 -3.418973 1.064059
H 10.358859 -2.111054 1.656318
H 10.476213 -2.684216 -0.054045
B -3.820437 2.235873 2.46821
H -4.871836 1.633 2.558653
H -3.697224 3.192745 3.231625
