40

Ru 0.525914 5e-06 -4e-06
Cl 0.168085 0.366985 2.398232
Cl 0.168096 -0.366997 -2.398234
N -0.992336 -1.499085 0.197591
N -0.992367 1.499084 -0.197605
C 3.107838 0.171189 1.121144
H 3.449468 0.330316 2.157284
C 2.207881 -1.062749 0.875864
H 1.907016 -1.776254 1.653897
C 2.21055 -1.276812 -0.517093
H 1.944376 -2.202791 -1.043416
C 3.10785 -0.171139 -1.121133
H 3.449491 -0.330262 -2.15727
C 2.20788 1.06279 -0.87586
H 1.906992 1.776282 -1.653896
C 2.210534 1.276853 0.517095
H 1.944324 2.202823 1.043415
C 4.162068 2.9e-05 1e-05
H 4.79815 -0.899911 0.136241
H 4.798144 0.899975 -0.136213
C -2.032475 -1.34558 1.052944
H -2.005202 -0.434158 1.667986
C -3.04527 -2.301786 1.182872
H -3.865501 -2.120312 1.892195
C -2.991489 -3.468921 0.408943
H -3.770827 -4.24119 0.494344
C -1.919017 -3.623487 -0.480609
H -1.825394 -4.514103 -1.118387
C -0.950011 -2.618782 -0.564581
H -0.126365 -2.67294 -1.288982
C -2.032526 1.345542 -1.052927
H -2.00524 0.434112 -1.667959
C -3.045352 2.301716 -1.182835
H -3.865601 2.120212 -1.892131
C -2.99158 3.468863 -0.408921
H -3.770945 4.241107 -0.494305
C -1.91908 3.623474 0.480589
H -1.825458 4.514105 1.118346
C -0.950042 2.618798 0.564542
H -0.126371 2.672994 1.288912
