83

Ru -0.315393 0.029651 0.074711
Cl 0.093099 -0.035395 2.474701
Cl -0.036926 0.186683 -2.345319
P -1.937217 -1.516306 -0.165788
P -2.008491 1.497593 0.213453
N 1.359432 -1.348697 0.075629
H 1.388103 -1.628959 1.071509
H 1.238328 -2.194734 -0.496081
N 1.348775 1.416362 0.038544
H 1.327972 1.750787 -0.939304
H 1.234374 2.223083 0.664747
C -3.5892 -0.70788 -0.397071
C -3.608007 0.703063 -0.319623
C -4.817916 1.3889 -0.546429
H -4.852901 2.487338 -0.496684
C -5.996161 0.683857 -0.835625
H -6.933164 1.233068 -1.014594
C -5.980079 -0.718947 -0.888524
H -6.903696 -1.275688 -1.10856
C -4.779746 -1.410206 -0.669036
H -4.773036 -2.510381 -0.71778
C 2.616847 -0.666011 -0.313285
H 2.561919 -0.530465 -1.413386
C 2.632663 0.738086 0.337307
H 2.651951 0.598964 1.437995
C -2.017586 -2.737875 2.477344
H -2.643899 -1.922185 2.888495
H -0.965328 -2.439466 2.647729
H -2.234266 -3.658099 3.060477
C -2.311835 -2.967243 1.001592
H -3.401154 -3.156445 0.874835
C -1.570262 -4.141808 0.345888
H -0.471514 -4.016433 0.487821
H -1.840192 -5.106178 0.826599
C -1.924431 -4.108383 -1.144686
H -2.996937 -4.379394 -1.267111
H -1.344067 -4.847002 -1.737549
C -1.693714 -2.677836 -1.663006
H -0.611075 -2.529728 -1.868625
C -2.445108 -2.311202 -2.938837
H -2.19854 -1.277827 -3.249331
H -3.543334 -2.389558 -2.813166
H -2.150723 -2.995734 -3.762753
C -3.258755 1.234911 2.800654
H -2.700909 0.290048 2.951229
H -4.24818 1.002645 2.35604
H -3.431198 1.686766 3.800062
C -2.450812 2.181557 1.922123
H -1.44388 2.302334 2.380936
C -3.061042 3.565157 1.668615
H -4.125612 3.460157 1.364243
H -3.061779 4.178841 2.595166
C -2.243622 4.221821 0.5507
H -1.237685 4.484697 0.948794
H -2.696383 5.170502 0.192057
C -2.065083 3.21793 -0.608712
H -2.988714 3.204477 -1.224665
C -0.8852 3.536162 -1.52426
H -0.720311 2.73941 -2.275894
H 0.052005 3.64942 -0.939863
H -1.051023 4.500313 -2.049395
C 3.860868 -1.454285 0.047115
C 4.076859 -1.874002 1.376404
H 3.330386 -1.642029 2.154968
C 5.237689 -2.58062 1.720683
H 5.393172 -2.90318 2.761477
C 6.201431 -2.872306 0.741099
H 7.113458 -3.425815 1.011471
C 5.996838 -2.454246 -0.582675
H 6.748978 -2.677186 -1.35465
C 4.832652 -1.749802 -0.925822
H 4.675158 -1.413501 -1.962559
C 3.843945 1.535892 -0.104319
C 4.881343 1.830322 0.798564
H 4.799902 1.487243 1.841809
C 6.014671 2.542749 0.377426
H 6.819006 2.765119 1.095041
C 6.122096 2.969624 -0.954986
H 7.009856 3.529427 -1.28633
C 5.092147 2.678886 -1.864979
H 5.171105 3.008511 -2.912152
C 3.962128 1.964423 -1.443062
H 3.162649 1.73321 -2.167457
