43

Co -0.000725 0.000447 -0.000371
C -3.134818 0.515031 -8.1e-05
C -2.363566 1.1425 1.002038
O -1.09684 1.043136 1.145655
C -3.039041 2.021078 2.032269
O 1.450849 0.42582 1.14583
C 2.17275 1.47143 1.001935
C 2.015752 2.454353 0.000992
C 1.020607 2.419179 -0.99966
O 0.133923 1.509176 -1.143726
C 3.272668 1.614206 2.031117
C 0.94696 3.527189 -2.027458
H -4.126173 2.116857 1.858925
H -2.864827 1.599883 3.043326
H -2.572893 3.026979 2.020633
H 3.903994 0.702873 2.024041
H 2.821294 1.682582 3.04192
H 3.905397 2.502553 1.853391
H 1.700474 4.316503 -1.853427
H 1.093289 3.097729 -3.039502
H -0.067283 3.974823 -2.01403
H 2.712862 3.302081 0.00116
H -4.217907 0.692423 0.000349
O -1.372683 -0.635878 -1.146983
O 1.238281 -0.868326 -1.145767
O -0.357795 -1.471381 1.143285
C -2.604738 -0.325505 -1.002777
C 1.586435 -2.09023 -1.001266
C 0.190412 -2.617691 1.000037
C -3.525944 -0.942771 -2.032298
C 1.122135 -2.970458 -3e-05
C 2.582354 -2.578832 -2.030287
C -0.23474 -3.643141 2.028209
H -4.586715 -0.686718 -1.858272
H -3.227127 -0.599329 -3.043604
H -3.405056 -2.044824 -2.02057
H 1.510565 -3.996959 0.000417
H 3.472224 -1.917594 -2.024334
H 2.132459 -2.500253 -3.041015
H 2.897424 -3.622814 -1.851555
H 0.226698 -4.632197 1.855187
H 0.040539 -3.282394 3.040213
H -1.338884 -3.742701 2.013977
