47

Ru 0.117596 0.000159 -0.338977
Cl -0.37874 0.001657 -2.641354
N 0.968692 -0.00183 1.552887
N 2.735571 -0.004647 2.902877
H 3.698359 -0.005741 3.238848
N 4.292111 -0.001375 -0.091349
H 5.125566 -0.001903 0.496256
N 2.166892 -0.000519 -0.749042
N -1.75736 0.001025 0.138303
N -0.221185 -2.016151 -0.279418
N -0.218806 2.016797 -0.277671
C 2.324779 -0.002643 1.598074
C 1.610612 -0.005198 3.707654
H 1.677736 -0.006686 4.799532
C 0.520042 -0.003315 2.855038
H -0.547136 -0.002944 3.098131
C 2.988567 -0.001699 0.327651
C 4.291346 -9e-06 -1.476003
H 5.220092 0.000371 -2.054432
C 2.963117 0.000611 -1.871911
H 2.512428 0.001633 -2.870726
C -2.413279 1.200085 0.243135
C -3.787388 1.217873 0.527839
H -4.32276 2.172972 0.614695
C -4.473498 0.002385 0.679707
H -5.550362 0.002926 0.898245
C -3.788799 -1.213782 0.526878
H -4.325283 -2.168328 0.612961
C -2.414674 -1.197352 0.242186
C -1.530413 -2.346687 0.012998
C 0.665853 -3.006923 -0.522638
H 1.685496 -2.681578 -0.774473
C 0.315102 -4.35821 -0.47766
H 1.074568 -5.123663 -0.689847
C -1.010811 -4.708813 -0.173189
H -1.320035 -5.763072 -0.134829
C -1.937088 -3.690174 0.071975
H -2.983135 -3.932007 0.304523
C -1.527702 2.348583 0.01487
C 0.669323 3.006774 -0.520156
H 1.688625 2.680497 -0.772162
C 0.320058 4.35841 -0.474262
H 1.08038 5.123169 -0.685888
C -1.005481 4.710268 -0.16961
H -1.313539 5.764842 -0.130515
C -1.932892 3.692478 0.074778
H -2.978688 3.935301 0.307423
