75

Pd -8.7e-05 -0.000692 0.002033
P 2.368502 0.004215 0.029164
O 0.315815 -2.695027 0.86274
O -0.191772 -2.570685 -1.244956
N 0.026518 -2.044493 -0.150054
C 3.277523 -1.24049 -0.980659
C 3.081714 -2.618824 -0.738291
H 2.388645 -2.955696 0.04692
C 3.771958 -3.56945 -1.501963
H 3.608373 -4.63956 -1.304457
C 4.653926 -3.164073 -2.516709
H 5.187915 -3.915505 -3.118042
C 4.849072 -1.797029 -2.76163
H 5.539952 -1.468419 -3.552876
C 4.1683 -0.837087 -1.99704
H 4.335412 0.23185 -2.191265
C 2.953031 -0.240124 1.750612
C 4.075962 -1.02879 2.067281
H 4.630072 -1.54597 1.270245
C 4.482522 -1.157536 3.404694
H 5.357231 -1.778952 3.649998
C 3.777345 -0.498509 4.423646
H 4.097576 -0.604682 5.47142
C 2.662221 0.294878 4.105541
H 2.108075 0.81532 4.901307
C 2.243177 0.424295 2.774325
H 1.375125 1.054137 2.516087
C 3.087475 1.607159 -0.496594
C 4.12978 2.226472 0.220137
H 4.51404 1.762702 1.140726
C 4.668532 3.437535 -0.239035
H 5.477763 3.922899 0.327364
C 4.175388 4.030188 -1.412415
H 4.59708 4.983163 -1.76657
C 3.136615 3.413232 -2.128
H 2.736713 3.881486 -3.039738
C 2.588154 2.206815 -1.67167
H 1.753065 1.739175 -2.214638
P -2.368668 -0.004784 -0.027677
O -0.318095 2.69322 -0.858953
O 0.191452 2.570116 1.248301
N -0.027287 2.043274 0.153807
C -3.278752 1.238024 0.983557
C -3.082372 2.616887 0.744579
H -2.388541 2.955462 -0.03922
C -3.773236 3.565906 1.509701
H -3.609195 4.636425 1.314803
C -4.656397 3.158427 2.522555
H -5.19084 3.908603 3.125053
C -4.852156 1.790868 2.764082
H -5.544016 1.46059 3.553775
C -4.170782 0.832534 1.998026
H -4.338432 -0.236794 2.189601
C -2.948904 0.244261 -1.749913
C -4.069543 1.035683 -2.067717
H -4.624688 1.552227 -1.270994
C -4.472507 1.168017 -3.405878
H -5.345415 1.791614 -3.652054
C -3.766055 0.509787 -4.424449
H -4.083466 0.618766 -5.472792
C -2.653252 -0.286421 -4.10523
H -2.098133 -0.806273 -4.900704
C -2.237783 -0.419397 -2.773258
H -1.371521 -1.051357 -2.51417
C -3.090221 -1.60851 0.492181
C -4.131758 -2.224606 -0.228448
H -4.513584 -1.75781 -1.148516
C -4.672812 -3.436357 0.226153
H -5.481429 -3.91918 -0.343286
C -4.182747 -4.032924 1.398842
H -4.606237 -4.986428 1.74941
C -3.144754 -3.419185 2.118307
H -2.747246 -3.890486 3.029523
C -2.594017 -2.212066 1.666572
H -1.7595 -1.74696 2.212572
