75

Pt 8e-06 -5.8e-05 -0.000118
P 2.356979 0.00289 0.030324
O -0.234733 -2.609144 -1.199884
O 0.342419 -2.704421 0.888473
N 0.021196 -2.061644 -0.122524
C 3.242312 -1.256038 -0.981808
C 3.054165 -2.631605 -0.71865
H 2.374259 -2.96046 0.081211
C 3.733492 -3.589285 -1.483578
H 3.575282 -4.657357 -1.271257
C 4.597806 -3.194035 -2.517067
H 5.123844 -3.951344 -3.118073
C 4.786045 -1.829581 -2.781242
H 5.463133 -1.508816 -3.587452
C 4.115384 -0.862332 -2.017195
H 4.276309 0.204452 -2.22726
C 2.969188 -0.213881 1.743738
C 2.277986 0.467629 2.768647
H 1.403245 1.089549 2.514572
C 2.725402 0.363063 4.092741
H 2.186659 0.896189 4.890672
C 3.849349 -0.421568 4.401578
H 4.191553 -0.507883 5.44424
C 4.535527 -1.097332 3.380591
H 5.416686 -1.712188 3.619104
C 4.100954 -0.993742 2.049818
H 4.639403 -1.523851 1.250519
C 3.055834 1.599777 -0.535476
C 2.538362 2.173485 -1.715627
H 1.699079 1.690762 -2.238457
C 3.075189 3.373693 -2.201212
H 2.660697 3.823122 -3.115862
C 4.121197 4.007882 -1.511856
H 4.534077 4.955575 -1.88979
C 4.633112 3.439677 -0.334404
H 5.448007 3.938875 0.211417
C 4.105212 2.235954 0.155398
H 4.503294 1.791674 1.079687
P -2.356943 -0.002919 -0.030417
O 0.234729 2.609146 1.19954
O -0.342402 2.704224 -0.888827
N -0.021193 2.061539 0.122245
C -3.242016 1.256201 0.981712
C -3.054078 2.631717 0.718143
H -2.374479 2.960419 -0.08204
C -3.733178 3.589531 1.4831
H -3.575133 4.657563 1.270458
C -4.597049 3.194468 2.517031
H -5.122905 3.951885 3.118061
C -4.785074 1.830065 2.781618
H -5.461815 1.509443 3.588178
C -4.114646 0.86268 2.01754
H -4.275415 -0.204065 2.227926
C -2.969395 0.213681 -1.743757
C -2.27828 -0.467855 -2.768704
H -1.403441 -1.089668 -2.514704
C -2.725908 -0.363456 -4.09274
H -2.187234 -0.896603 -4.890704
C -3.849981 0.421032 -4.401479
H -4.192354 0.507209 -5.444096
C -4.536074 1.096822 -3.38045
H -5.417331 1.711567 -3.618888
C -4.101291 0.993398 -2.049734
H -4.639669 1.523528 -1.250402
C -3.055868 -1.599675 0.53568
C -2.538159 -2.173402 1.715716
H -1.698625 -1.690807 2.238259
C -3.075081 -3.373469 2.201547
H -2.660402 -3.822916 3.116104
C -4.121428 -4.007493 1.512557
H -4.53439 -4.955073 1.890687
C -4.633585 -3.43927 0.335217
H -5.448746 -3.938342 -0.210319
C -4.105588 -2.235691 -0.15483
H -4.503853 -1.7914 -1.079036
