53

Cr -0.474542 -0.821523 -0.343928
C -0.036672 2.585517 -0.658019
C 1.485429 2.663636 -0.834813
C 2.210855 2.536229 0.506566
C 1.937845 1.19671 1.227284
C 0.058735 -0.451157 1.734718
C -1.28797 -0.908564 1.724152
C -2.213746 -0.204585 0.890325
C -1.786869 0.90785 0.093505
C -0.423472 1.360748 0.150843
C 0.510381 0.695828 1.009973
C 3.049172 0.123646 1.005509
C 3.373094 -0.106367 -0.489503
C 4.316441 -1.201412 -0.701005
C 4.314278 0.46707 1.800226
C -0.625299 3.852432 -0.006558
C -3.315329 0.911906 -1.753806
C -4.443835 0.250032 1.482564
C -1.737903 -2.08972 2.537709
C 0.738421 -2.186682 -0.308047
C -1.639654 -1.99572 -1.114662
C 0.081951 -0.356466 -2.015052
N 5.091493 -2.068427 -0.842208
O -2.668624 1.609729 -0.680065
O -3.514609 -0.629675 0.840966
O 1.50886 -3.066246 -0.260554
O -2.400396 -2.741303 -1.5978
O 0.441397 -0.026061 -3.082523
H -0.507201 2.479991 -1.656542
H 1.808852 1.868937 -1.53563
H 1.746365 3.628554 -1.316252
H 3.303471 2.671049 0.373172
H 1.895139 3.372122 1.164281
H 1.984518 1.402475 2.319911
H 0.782274 -1.003914 2.352711
H 2.439057 -0.331104 -1.044697
H 3.811392 0.810099 -0.938851
H 2.6631 -0.842195 1.393298
H 5.090493 -0.310852 1.661119
H 4.095418 0.543165 2.884355
H 4.7508 1.434672 1.475893
H -1.728196 3.78628 0.047689
H -0.361738 4.74754 -0.605359
H -0.239966 4.004289 1.021841
H -2.555649 0.521177 -2.462791
H -3.956359 1.657554 -2.259527
H -3.929833 0.06562 -1.386876
H -4.219549 0.344635 2.567669
H -5.442894 -0.206953 1.358416
H -4.435337 1.258815 1.018431
H -0.895723 -2.78332 2.721249
H -2.546232 -2.638242 2.020776
H -2.131779 -1.761983 3.523792
