47

Co -0.0 0.758978 -2e-06
N 0.937923 -0.594508 -1.122687
H 0.559799 -1.555607 -1.082688
H 0.861604 -0.271498 -2.100738
C 2.383857 -0.600625 -0.740287
H 2.80844 0.303311 -1.228196
N 1.642201 0.81329 1.05977
H 2.095878 1.67288 0.697775
H 1.472082 0.971962 2.064853
C 2.467865 -0.380355 0.77287
H 1.981811 -1.2441 1.28425
C 3.922583 -0.288609 1.240821
H 3.95962 -0.158656 2.34225
H 4.381489 0.620882 0.79311
C 4.705504 -1.536991 0.806348
H 5.764551 -1.439136 1.117004
H 4.306698 -2.426293 1.342963
C 4.612518 -1.765506 -0.707781
H 5.148557 -2.692084 -0.993832
H 5.12171 -0.933555 -1.241132
C 3.152672 -1.844519 -1.182554
H 3.103036 -1.949629 -2.286253
H 2.666171 -2.748365 -0.747535
N -0.937901 -0.594551 1.122653
H -0.559782 -1.555652 1.082659
H -0.861568 -0.271526 2.100698
C -2.383839 -0.600653 0.74027
H -2.808412 0.303274 1.228204
N -1.642194 0.81329 -1.059781
H -2.095883 1.672896 -0.697845
H -1.472041 0.971913 -2.064866
C -2.467867 -0.380352 -0.77288
H -1.98183 -1.244091 -1.284285
C -3.922591 -0.288581 -1.240807
H -3.959646 -0.158602 -2.342231
H -4.381483 0.620904 -0.793066
C -4.705517 -1.536966 -0.80635
H -4.306728 -2.426259 -1.342994
H -5.764568 -1.439094 -1.116987
C -4.612508 -1.765519 0.707771
H -5.14855 -2.6921 0.993808
H -5.121685 -0.933577 1.241151
C -3.152655 -1.844554 1.182519
H -3.103002 -1.94969 2.286214
H -2.666167 -2.748392 0.74747
Cl -0.890057 2.268916 1.405994
Cl 0.890033 2.26898 -1.405938
