33

Re 0.82832 0.294184 0.049601
O -0.124178 2.695111 1.832146
O 3.519938 -0.17954 1.645798
O -1.480748 0.66368 -2.078235
O 2.546533 2.077805 -1.90158
O 1.90846 -2.602812 -0.615303
N -1.512354 -1.450232 1.303726
C 0.239872 1.811534 1.162548
C 2.511309 -0.009689 1.098154
C -0.685914 0.502257 -1.244667
C 1.909635 1.431188 -1.172527
C -0.204652 -1.185857 1.250411
C 0.609294 -2.160491 2.03744
C -2.592994 -0.762093 0.666264
C -3.368132 -1.4474 -0.28471
C -4.432933 -0.788455 -0.914763
C -4.723619 0.546651 -0.593746
C -3.957912 1.218822 0.372395
C -2.895757 0.566298 1.012465
C 1.508996 -1.567511 -1.134259
C 1.493769 -1.478979 -2.653635
H -1.797905 -2.287833 1.833213
H 1.228792 -1.635335 2.790732
H 0.010921 -2.949855 2.54629
H 1.322932 -2.628076 1.312314
H -3.114989 -2.486086 -0.545222
H -5.030972 -1.318795 -1.670635
H -5.553095 1.065239 -1.097021
H -4.188864 2.262035 0.63427
H -2.296042 1.081058 1.774649
H 1.8421 -2.42864 -3.108509
H 2.143513 -0.641176 -2.980836
H 0.470307 -1.236343 -3.006262
