31

Pt -0.454916 -0.000204 -0.266767
I -2.129543 1.903563 0.430864
I -2.12823 -1.904914 0.431477
N 2.86455 1.396416 1.993364
N 2.867432 -1.394971 1.992242
N 0.901388 1.439353 -0.879746
N 0.902415 -1.438855 -0.879706
C 2.428743 0.714387 0.919955
C 2.429937 -0.712998 0.919487
C 3.226888 -0.700563 3.079001
H 3.5505 -1.276124 3.963341
C 3.225176 0.701885 3.079654
H 3.547004 1.277415 3.964665
C 2.094678 1.583117 -0.248856
C 2.994375 2.597668 -0.621813
H 3.927042 2.704462 -0.052321
C 2.674263 3.450283 -1.683081
H 3.371985 4.242233 -1.992903
C 1.441285 3.28452 -2.330466
H 1.133783 3.935961 -3.160412
C 0.574432 2.281499 -1.891399
H -0.425009 2.136829 -2.324369
C 2.096205 -1.581595 -0.249493
C 2.99674 -2.595121 -0.623242
H 3.929829 -2.701071 -0.054285
C 2.676925 -3.447803 -1.684536
H 3.375309 -4.238928 -1.994974
C 1.443367 -3.283203 -2.331119
H 1.13603 -3.934789 -3.161012
C 0.575743 -2.281175 -1.891322
H -0.424114 -2.137473 -2.323658
