59

Cr -2.512388 0.432404 0.519951
C -1.162721 -1.349831 0.431006
C -0.36396 -0.154215 0.455742
C -0.602215 0.770461 1.512335
H -0.014953 1.698592 1.528724
C -1.579941 0.53024 2.521026
H -1.76255 1.280109 3.301569
C -2.394745 -0.62597 2.428465
H -3.210053 -0.784835 3.148209
C -2.185676 -1.583782 1.391743
H -2.844889 -2.453007 1.281745
O -0.903206 -2.222822 -0.592766
C -1.256487 -3.609954 -0.433255
H -0.644596 -4.115992 -1.214338
H -0.953961 -3.941374 0.58167
O -2.604428 -3.873515 -0.564962
C -3.117852 -3.7077 -1.886346
H -4.171506 -4.04126 -1.864172
H -2.552897 -4.336552 -2.612474
H -3.079544 -2.64871 -2.216149
C 0.744476 0.04639 -0.605287
O 0.217144 -0.142616 -1.915859
H -0.20999 -1.024619 -1.906145
C 1.876472 -0.962983 -0.336751
C 2.154273 -1.487188 0.935379
H 1.532718 -1.197553 1.796104
C 3.217914 -2.383827 1.143927
H 3.40136 -2.772758 2.154424
C 4.027537 -2.770155 0.057804
C 3.755687 -2.245988 -1.22593
H 4.398952 -2.55749 -2.061899
C 2.698208 -1.356511 -1.414269
H 2.481793 -0.950612 -2.412905
O 5.078439 -3.63262 0.143025
C 5.397599 -4.176876 1.407943
H 6.272274 -4.836165 1.255397
H 4.559903 -4.780414 1.825732
H 5.66561 -3.386962 2.145801
C 1.261241 1.487765 -0.562912
C 2.370625 1.871326 0.20615
H 2.943043 1.109583 0.755856
C 2.773006 3.215576 0.286596
H 3.649509 3.476827 0.894255
C 2.055649 4.202831 -0.418843
C 0.944627 3.82212 -1.203415
H 0.395329 4.603722 -1.747488
C 0.558293 2.484274 -1.273782
H -0.301415 2.186713 -1.888186
O 2.357291 5.530627 -0.410736
C 3.461527 5.962983 0.358179
H 3.330511 5.735305 1.440545
H 3.525334 7.059399 0.228257
H 4.415348 5.502867 0.013546
C -2.885033 0.086405 -1.231115
O -3.127359 -0.17052 -2.348149
C -2.533655 2.222815 0.136871
O -2.554768 3.366785 -0.100729
C -4.309892 0.547567 0.830848
O -5.457831 0.617535 1.042731
