28

Hg 0.672732 -0.69827 0.171602
I -0.538343 -1.302873 2.507911
I 2.513266 -0.780317 -1.785614
N 0.87001 2.054964 0.489389
N -1.275348 0.825366 -0.605764
N -2.083105 -1.226025 -1.267692
C -3.624852 0.688039 -1.238684
C -0.179928 2.829514 0.147663
C -1.404249 2.119626 -0.336054
C -2.329368 0.093431 -1.042223
C 2.002497 2.625418 0.910308
H 2.828526 1.938319 1.162275
C 1.075855 4.833817 0.676489
H 1.152624 5.929392 0.743117
C -2.659123 2.78915 -0.500729
H -2.760364 3.854342 -0.255259
C -0.110111 4.236748 0.229368
H -0.960406 4.864779 -0.069098
C -3.755883 2.074915 -0.949155
H -4.733461 2.566129 -1.074882
C 2.158787 4.01725 1.026548
H 3.109357 4.443024 1.378958
C -4.676353 -0.154719 -1.69287
H -5.682029 0.26434 -1.854091
C -3.086491 -1.98078 -1.68539
H -2.859623 -3.048393 -1.854761
C -4.406791 -1.495097 -1.917308
H -5.188885 -2.185279 -2.265482
