61

C -0.952642 3.578742 -0.301609
H -2.050921 3.520274 -0.351572
C -0.281441 4.81244 -0.265611
H -0.858686 5.747865 -0.290817
C 1.118211 4.818899 -0.19913
H 1.676056 5.766627 -0.163366
C 1.798389 3.595188 -0.185104
H 2.893555 3.516679 -0.142456
C 1.044863 2.40868 -0.234066
C 1.741841 1.096744 -0.265531
C 3.678492 -0.092279 -0.275375
C 5.166228 -0.139668 -0.183441
C 7.145675 1.018295 -0.041727
H 7.65128 1.999911 -0.000942
C 7.904314 -0.167436 0.000677
H 9.001092 -0.123064 0.076127
C 7.227025 -1.393109 -0.054938
H 7.778957 -2.344588 -0.023294
C 5.830239 -1.384116 -0.150537
H 5.241867 -2.310072 -0.19603
C 1.681895 -1.181158 -0.430536
C 0.899944 -2.434101 -0.607696
C 1.553995 -3.669989 -0.747069
H 2.650191 -3.696637 -0.699154
C 0.780026 -4.82016 -0.943976
H 1.261854 -5.802983 -1.056209
C -0.614078 -4.694828 -0.998775
H -1.263224 -5.567318 -1.159632
C -1.186102 -3.421638 -0.84166
H -2.27694 -3.267855 -0.880722
C -2.873927 2.355338 2.715796
H -3.407687 3.320019 2.857913
H -1.794519 2.498363 2.906813
H -3.259184 1.614739 3.449633
C -2.950466 -1.711962 2.916388
H -2.976834 -2.654031 3.506981
H -3.971734 -1.489556 2.552079
H -2.623831 -0.885333 3.587767
La -1.730932 0.044116 -0.017016
N -0.306406 2.401689 -0.280059
N 0.990324 -0.024135 -0.343826
N 3.07885 1.108141 -0.243797
N 3.017489 -1.262941 -0.39382
N -0.446862 -2.316461 -0.647826
N 5.812791 1.041482 -0.130391
N 0.58528 -0.207296 2.469725
N -2.09061 1.284011 -2.712441
N -4.530419 -1.094698 -0.464315
O -0.426488 0.535994 2.164068
O 0.42976 -1.470225 2.438752
O 1.6646 0.300261 2.753398
O -1.199697 0.379484 -2.491277
O -2.868004 1.558055 -1.714271
O -2.187695 1.855115 -3.778434
O -3.514966 -1.463771 -1.159926
O -4.281338 -0.208543 0.445973
O -5.642189 -1.549086 -0.633629
O -3.003602 1.887723 1.374424
H -3.92516 1.600456 1.194796
O -2.09469 -1.834807 1.785761
H -1.136429 -1.831556 2.114029
