30

Hg -0.43984 -1.560468 0.047997
N 0.665552 0.857198 -0.122998
N -2.023402 0.842991 0.144439
C 0.076582 2.042146 -0.007309
N 2.50825 -0.514337 -0.267433
C -1.419066 2.045311 0.027836
C 2.015415 0.751872 -0.158746
N 0.108213 -1.639928 3.222119
C 2.864591 1.911234 -0.08032
C -0.097038 -1.634058 2.065594
C -3.35845 0.783877 0.172329
H -3.800638 -0.223107 0.26559
C -0.884354 -1.785098 -1.936286
C 0.84501 3.247587 0.081859
H 0.349848 4.220573 0.196272
C 2.226188 3.176587 0.044201
H 2.838241 4.089125 0.117523
C 3.82278 -0.666291 -0.302169
H 4.195229 -1.702596 -0.386879
N -1.153569 -1.883085 -3.075389
C -2.167144 3.238252 -0.067187
H -1.670244 4.211129 -0.180378
C -4.182179 1.919643 0.087336
H -5.276603 1.817151 0.114367
C 4.270886 1.706282 -0.124046
H 4.951712 2.570088 -0.066341
C 4.752738 0.412068 -0.235958
H 5.831958 0.204451 -0.271862
C -3.566113 3.17081 -0.036858
H -4.166649 4.089397 -0.114897
