52

C 1.383522 -3.372052 -0.965165
H 2.476781 -3.229284 -0.945108
C 0.813295 -4.633366 -1.211717
H 1.465817 -5.496039 -1.408274
C -0.580728 -4.759768 -1.193696
H -1.061552 -5.73236 -1.376388
C -1.356052 -3.622122 -0.936043
H -2.452985 -3.651422 -0.907372
C -0.703712 -2.398033 -0.709572
C -1.494879 -1.161973 -0.466197
C -3.50067 -0.097409 -0.234416
C -1.576421 1.113946 -0.233383
C -4.983817 -0.165103 -0.097829
C -7.029632 -1.442787 0.026937
H -7.573334 -2.399433 0.022646
C -7.713393 -0.228351 0.173681
H -8.807355 -0.198442 0.287037
C -6.965515 0.965236 0.17435
H -7.476586 1.938113 0.288138
C -5.636693 -1.415862 -0.112929
H -5.044068 -2.33294 -0.229136
C -0.883823 2.428643 -0.229624
C -1.63267 3.617252 -0.182669
H -2.72685 3.54598 -0.109772
C -0.947385 4.837974 -0.238154
H -1.500482 5.788505 -0.203735
C 0.449598 4.825542 -0.344006
H 1.028428 5.758423 -0.401706
C 1.118076 3.589365 -0.372922
H 2.214911 3.525328 -0.452396
La 1.827803 0.075836 0.165621
N 0.644483 -2.277608 -0.721478
N -0.8179 -0.000722 -0.335263
N 0.466719 2.416872 -0.310787
N -2.91232 1.110107 -0.17506
N -2.830951 -1.254765 -0.419466
N -5.636625 1.005474 0.043119
N 2.685364 1.206533 -2.469734
N 4.393005 -1.404071 0.880963
N 0.115727 -0.361537 2.692317
O 1.775242 0.294614 -2.369651
O 3.273632 1.530305 -1.364349
O 2.959564 1.734204 -3.526341
O 3.87554 -0.504052 1.65256
O 3.73499 -1.634548 -0.205597
O 5.416242 -1.98808 1.159259
O 0.58593 -1.341318 2.015333
O 0.453308 0.821605 2.26936
O -0.615425 -0.509894 3.650234
O 2.817893 1.99913 1.735357
H 3.612443 1.525004 2.062284
H 2.137607 1.85143 2.431921
