45

Cd 1.74902 0.000282 0.000437
Br 2.96514 0.975009 -2.046969
Br 2.96425 -0.976056 2.047465
O -1.100734 -0.072885 1.592883
O -1.102593 0.07389 -1.592947
N 0.457887 1.945701 0.321515
C -0.849881 2.136061 0.72888
O -2.932898 -1.259323 -1.410891
N 0.457484 -1.944849 -0.322599
C -1.597785 0.999758 1.295638
C 0.870965 3.084339 -0.202526
C -1.598914 -0.999086 -1.295693
C -0.850299 -2.135302 -0.729772
O -2.931798 1.259319 1.411663
N -0.125776 4.018541 -0.133191
N -0.125406 -4.018309 0.130434
C -1.241735 -3.449047 -0.452356
C -1.241801 3.449427 0.450374
C 0.871042 -3.083809 0.200388
C -2.512738 4.200664 0.652736
H -2.334743 5.172073 1.158902
H -3.205333 3.600611 1.26653
H -3.014393 4.413549 -0.315605
C -3.732626 -0.16135 -1.903536
C -2.51282 -4.200133 -0.654371
C -3.730691 0.160985 1.904875
C -5.173683 0.618456 1.953364
C -5.175461 -0.619429 -1.950877
H -5.300768 -1.484605 -2.632025
H -5.820748 0.202582 -2.319085
H -5.535992 -0.914701 -0.945022
H 1.846464 3.22971 -0.688246
H -0.060426 4.981176 -0.468143
H 1.846677 -3.229339 0.685778
H -3.352649 0.141934 -2.901586
H -3.018744 -4.405107 0.313484
H -0.059639 -4.981244 0.464445
H -3.349817 -0.142166 2.90262
H -3.588799 -0.70851 1.228341
H -2.334038 -5.175465 -1.152557
H -3.202417 -3.603722 -1.275078
H -3.590553 0.70823 -1.227151
H -5.29878 1.483635 2.634545
H -5.535192 0.913471 0.947782
H -5.818307 -0.2038 2.322184
