44

Re -1.5154 -0.639966 0.029186
N 0.370962 -0.390849 1.135781
N -1.134649 1.52234 0.080851
C -2.638599 -0.668823 1.588229
O -3.306289 -0.680513 2.550099
C -1.529611 -2.577362 -0.013252
O -1.510018 -3.7435 0.000339
C -3.087112 -0.594179 -1.089021
O -4.037819 -0.499263 -1.764245
C 0.971266 -0.970955 -1.767726
O -0.161576 -0.367509 -1.654772
C 1.9514 -0.240167 -2.634998
H 1.49595 0.343059 -3.452031
O 1.279078 -2.041175 -1.184608
C 3.28631 -0.13643 -2.42264
H 3.873528 0.527595 -3.077103
O 3.730039 -1.782221 -0.667463
C 4.112914 -0.668384 -1.284635
O 5.120584 -0.05167 -0.946843
C 1.066223 -1.406397 1.691759
H 0.543419 -2.370364 1.755686
C 2.384725 -1.267777 2.11971
H 2.909834 -2.139087 2.535049
C 3.055141 -0.038342 1.956113
C 2.302828 1.022857 1.420454
H 2.781081 2.001756 1.281243
C 0.967977 0.831348 1.028442
C 0.111787 1.904936 0.482134
C 0.515646 3.24922 0.398548
H 1.522917 3.535648 0.729588
C -0.354198 4.232721 -0.096663
C -1.640172 3.806216 -0.492812
H -2.376093 4.522133 -0.887069
C -1.985067 2.459946 -0.391631
H -2.974706 2.097924 -0.705301
C 4.515302 0.107978 2.248334
H 4.856823 -0.613188 3.014711
H 4.77175 1.135289 2.572216
H 5.074385 -0.095936 1.304093
C 0.055239 5.674783 -0.201208
H -0.006766 6.025467 -1.252133
H 1.08912 5.83793 0.156373
H -0.623504 6.322041 0.391618
H 2.779052 -2.053536 -0.967173
