57

Ir -0.196628 -3.4e-05 2.1e-05
S -2.988846 3.085619 -1.682902
S -2.986153 -3.088321 1.682572
N 1.533269 0.828638 -1.033336
N -0.320906 1.779499 1.055929
N -0.319074 -1.77969 -1.0559
C 2.744681 0.510356 -0.519019
C -1.578556 -0.938733 1.098948
C 0.227896 -3.274801 -2.862504
H 0.785883 -3.447565 -3.792637
C -1.579274 0.937375 -1.09911
C -1.172884 2.726054 0.512217
N 1.533887 -0.827198 1.033565
C -1.321039 3.98302 1.140375
H -1.998085 4.724512 0.69281
C -1.830366 -2.255211 0.671193
C 2.745062 -0.507996 0.519257
C 3.058282 2.1735 -1.960354
H 3.610764 2.925944 -2.531926
C -3.141493 -1.680996 2.68172
H -3.828652 -1.711591 3.537357
N 3.702322 -1.33474 1.06187
C -1.170211 -2.727057 -0.512285
C 0.348433 -2.053014 -2.198974
H 0.990853 -1.245328 -2.578773
N 3.701327 1.337784 -1.061671
C 1.713634 1.850163 -1.927046
H 0.870397 2.291472 -2.469377
C 0.346188 2.053457 2.199093
H 0.989366 1.246405 2.578959
C 1.715014 -1.848629 1.927228
H 0.872106 -2.290604 2.469528
C -2.348726 0.62113 -2.260423
H -2.334638 -0.349803 -2.774526
C 0.224371 3.275112 2.862631
H 0.782075 3.448403 3.792836
C -2.348488 -0.623207 2.260137
H -2.335411 0.347749 2.774223
C -0.623244 4.258377 2.31566
H -0.740453 5.232641 2.812759
C -1.317052 -3.984183 -1.140436
H -1.993437 -4.726324 -0.692948
C -0.618828 -4.258883 -2.315619
H -0.735018 -5.233273 -2.812711
C 3.059911 -2.170927 1.960566
H 3.612961 -2.922955 2.532136
C 5.113097 1.452372 -0.72202
H 5.249965 1.367687 0.371363
H 5.469099 2.450449 -1.033613
H 5.725542 0.686507 -1.236159
C 5.114182 -1.44825 0.722236
H 5.251002 -1.363473 -0.371148
H 5.470945 -2.446052 1.033841
H 5.726031 -0.681912 1.236376
C -1.832412 2.2536 -0.671368
C -3.142677 1.678169 -2.682109
H -3.829732 1.708123 -3.537853
