56

Re 1.926504 -0.324402 0.034443
N 0.255721 -0.121837 1.448703
N 1.05224 1.647408 -0.366723
C 3.263749 0.303598 1.27212
O 4.055978 0.689075 2.045573
C 3.242312 -0.294081 -1.372773
O 4.021216 -0.210231 -2.243903
C 2.403922 -2.156082 0.457954
O 2.695106 -3.244479 0.761831
C -0.541494 -1.770205 -1.014043
O 0.291367 -0.805461 -1.280738
O -0.421343 -2.625725 -0.129511
C -1.821786 -1.714736 -1.885985
H -1.551928 -1.18738 -2.822896
C -2.335386 -3.125684 -2.214254
H -1.523245 -3.665871 -2.745439
H -2.473624 -3.681948 -1.264147
C -3.611143 -3.137981 -3.054666
H -4.45155 -2.642044 -2.52688
H -3.927525 -4.17381 -3.291616
H -3.467216 -2.604186 -4.017599
C -0.075223 -1.05353 2.367707
H 0.588011 -1.925874 2.431024
C -1.201333 -0.934441 3.181264
H -1.421799 -1.727763 3.910066
C -2.049984 0.182887 3.04918
C -1.702102 1.134868 2.079545
H -2.346321 2.009692 1.92802
C -0.553158 0.963893 1.289252
C -0.12581 1.930205 0.258941
C -0.862823 3.081406 -0.071982
H -1.819376 3.275401 0.430275
C -0.404437 3.971505 -1.053638
C 0.82493 3.658888 -1.673282
H 1.247533 4.311522 -2.45123
C 1.510973 2.502563 -1.307601
H 2.462493 2.227758 -1.784629
C -3.265228 0.351875 3.916347
H -3.798903 -0.60993 4.048874
H -3.971266 1.088816 3.489356
H -2.975116 0.703536 4.929475
C -1.180878 5.201112 -1.434234
H -0.603168 6.12054 -1.204222
H -2.147135 5.260096 -0.898527
H -1.386395 5.217877 -2.52426
C -2.814915 -0.844698 -1.134419
C -3.025448 0.498236 -1.508139
H -2.472353 0.90315 -2.37006
C -3.928136 1.312675 -0.806289
H -4.089689 2.353471 -1.129259
C -4.637701 0.796567 0.290346
H -5.362466 1.42571 0.830406
C -4.423844 -0.535851 0.682825
H -4.974 -0.950343 1.54188
C -3.51511 -1.34362 -0.014585
H -3.336759 -2.378942 0.310745
