59

Re 0.738088 -0.08394 -0.359707
Cl 0.696469 0.28496 2.07729
S 0.718017 -2.395884 -0.04613
S 3.023979 -4.265986 0.044186
P -1.719132 0.053175 0.012611
O 0.553 0.028125 -2.04978
O 1.023916 2.015056 -0.308918
N 2.801938 -0.353681 -0.117138
N 3.355666 -1.625419 -0.056658
C 2.150351 2.658636 -0.182378
C 2.104348 4.086271 -0.201112
H 1.11639 4.552161 -0.326946
C 3.251989 4.856471 -0.06289
H 3.169515 5.954617 -0.075502
C 4.523114 4.249501 0.094565
H 5.426608 4.86562 0.205119
C 4.606789 2.866275 0.102814
H 5.58491 2.373062 0.218855
C 3.451204 2.034209 -0.031912
C 3.68698 0.62906 -0.032619
H 4.735775 0.28876 0.050495
C 2.496478 -2.599938 -0.038273
C 4.829709 -4.06117 0.094459
H 5.251008 -5.082522 0.15298
H 5.12327 -3.471166 0.982641
H 5.184678 -3.5498 -0.819632
C -2.476969 -1.456342 0.756682
C -3.607648 -2.069587 0.1797
H -4.047835 -1.661056 -0.741153
C -4.175708 -3.204724 0.779108
H -5.056322 -3.678156 0.31887
C -3.624708 -3.731932 1.95661
H -4.070124 -4.62387 2.423129
C -2.503284 -3.117918 2.537368
H -2.064965 -3.525832 3.460701
C -1.927834 -1.985608 1.944965
H -1.049049 -1.503696 2.40024
C -2.600237 0.233205 -1.593217
C -3.517532 1.276503 -1.821251
H -3.724009 2.009968 -1.028451
C -4.167649 1.380147 -3.06178
H -4.880032 2.201202 -3.23407
C -3.912046 0.443959 -4.074215
H -4.423182 0.527636 -5.045328
C -2.998458 -0.59952 -3.847513
H -2.790998 -1.335244 -4.639102
C -2.338795 -0.703877 -2.616343
H -1.618548 -1.518457 -2.446722
C -2.35906 1.425545 1.047576
C -1.739041 2.688647 0.955829
H -0.842062 2.804766 0.328712
C -2.252926 3.768252 1.687805
H -1.763375 4.751879 1.620243
C -3.375193 3.595224 2.514463
H -3.770992 4.44438 3.092399
C -3.986624 2.33528 2.610653
H -4.862165 2.19344 3.262341
C -3.482009 1.248878 1.879801
H -3.960027 0.261343 1.958991
