83

Ru -0.577658 -0.631623 -0.380082
P 1.59204 0.176578 0.246676
C 1.947276 1.985972 0.51818
C 1.007153 2.849091 1.116139
C 1.303996 4.202212 1.331086
C 2.55617 4.717531 0.968312
C 3.513114 3.864704 0.399447
C 3.213093 2.513584 0.172507
C 2.969367 -0.234397 -0.915124
C 3.009823 0.405345 -2.172464
C 4.068511 0.150398 -3.055663
C 5.091333 -0.744584 -2.698779
C 5.060544 -1.371158 -1.443563
C 4.008557 -1.112853 -0.55015
C 2.161203 -0.617834 1.81495
C 1.65163 -1.886455 2.152084
C 2.07491 -2.531971 3.322693
C 3.0065 -1.909267 4.16778
C 3.511338 -0.641153 3.838232
C 3.091845 0.006198 2.667288
C -1.318901 -0.194773 1.669992
C -0.553911 0.493244 2.680356
N 0.021551 1.029024 3.553883
C -1.864683 -1.414949 2.204668
N -2.238846 -2.434402 2.660484
C -2.065155 0.564971 0.624621
C -3.547152 0.595157 0.546313
C -4.343619 0.174003 1.636221
C -5.742076 0.234182 1.57008
C -6.379018 0.728695 0.42231
C -5.600237 1.184897 -0.654182
C -4.203917 1.125271 -0.590796
C -1.214148 1.220362 -0.333518
C -1.17505 2.420193 -1.011789
C -0.310472 2.516041 -2.146408
N 0.413777 2.518531 -3.073878
C -1.89182 3.577078 -0.569446
N -2.477608 4.51649 -0.173496
C 0.292305 -2.477397 -1.483999
C 1.635105 -3.140353 -1.513035
C -0.820864 -2.943145 -0.711712
C -0.817677 -4.080703 0.255855
C -1.991474 -2.206295 -1.136035
C -3.392105 -2.49924 -0.697581
C -1.593537 -1.312099 -2.212425
C -2.496829 -0.522566 -3.107264
C -0.178609 -1.467386 -2.429392
C 0.534205 -0.958994 -3.643306
H 0.029176 2.480609 1.434415
H 0.538324 4.851776 1.780046
H 2.786606 5.781223 1.131076
H 4.505253 4.25036 0.120039
H 3.979219 1.869789 -0.278475
H 2.226257 1.124317 -2.457446
H 4.091663 0.660272 -4.030722
H 5.919368 -0.944192 -3.395822
H 5.864458 -2.063272 -1.150319
H 3.998364 -1.59619 0.437119
H 0.890422 -2.348618 1.507034
H 1.657745 -3.5164 3.582828
H 3.329082 -2.406811 5.094896
H 4.227212 -0.141216 4.507952
H 3.473561 1.008876 2.42647
H -3.871357 -0.194105 2.556146
H -6.337223 -0.101553 2.432513
H -7.477187 0.77731 0.373272
H -6.084291 1.60195 -1.550099
H -3.609752 1.500071 -1.433428
H 2.063252 -3.283107 -0.502825
H 2.367439 -2.571465 -2.110264
H 1.531143 -4.146002 -1.973714
H -1.292311 -3.809449 1.223364
H 0.207059 -4.446504 0.454152
H -1.402993 -4.930464 -0.15643
H -3.443663 -2.745341 0.379448
H -3.777437 -3.376757 -1.260705
H -4.075877 -1.65195 -0.888557
H -2.602434 -1.043708 -4.083207
H -2.08665 0.484401 -3.31705
H -3.507431 -0.408305 -2.677232
H 0.396756 0.130276 -3.78576
H 0.132068 -1.468617 -4.5464
H 1.618046 -1.161274 -3.602705
