43

Re -1.35614 -0.537398 -0.350589
Cl 4.284283 -1.327335 -0.435201
N -1.090623 1.386625 0.68911
N 0.353761 0.409529 -1.371499
N 0.192284 -1.229495 1.121073
O -3.671294 -1.535819 1.451771
O -3.401992 0.599033 -2.389438
O -1.199896 -3.208504 -1.918488
C -2.808942 -1.192483 0.745364
C -2.640814 0.165104 -1.625493
C -1.299592 -2.213894 -1.319564
C -1.855386 1.878073 1.678854
H -2.74563 1.290818 1.948978
C -1.55125 3.084651 2.342112
H -2.217034 3.438455 3.1416
C -0.418936 3.804571 1.973679
H -0.158883 4.747035 2.47867
C 0.403232 3.318424 0.924115
C 0.018127 2.094654 0.302476
C 0.789296 1.572605 -0.791847
C 1.583739 3.995015 0.456624
H 1.878728 4.934065 0.947802
C 2.32526 3.491275 -0.586139
H 3.221868 4.021516 -0.939664
C 1.943462 2.273111 -1.249146
C 2.64682 1.723495 -2.35213
H 3.54755 2.228999 -2.73141
C 2.177791 0.556462 -2.946534
H 2.69022 0.109206 -3.809448
C 1.026712 -0.07248 -2.430806
H 0.63761 -0.998785 -2.879027
C 1.404928 -1.631388 0.684049
H 1.551118 -1.676009 -0.403598
C 2.470751 -1.949213 1.539569
C 2.24267 -1.87326 2.924292
H 3.047938 -2.110553 3.636593
C 0.974937 -1.489951 3.385314
H 0.756432 -1.427286 4.460567
C -0.020181 -1.168808 2.459794
H -1.02145 -0.852796 2.785753
C 3.804311 -2.358849 0.969632
H 4.604204 -2.27836 1.72891
H 3.780843 -3.403742 0.600052
