41

V -1.610739 1.084346 -0.623606
C 0.836017 -0.234779 -0.058199
C 2.311151 -0.396028 -0.003693
C 3.14921 0.691592 0.332191
C 4.546355 0.564257 0.371309
C 5.140982 -0.669034 0.057582
C 4.333795 -1.766721 -0.283307
C 2.936465 -1.625878 -0.316612
C -2.14147 -1.832916 0.354451
H -1.763591 -2.837411 0.624108
C -3.561415 -1.621458 0.285887
C -4.443227 -2.719278 0.468825
H -4.00895 -3.719397 0.624772
C -5.825571 -2.547492 0.446513
H -6.494681 -3.40925 0.581666
C -6.358119 -1.254792 0.250735
H -7.449244 -1.109393 0.234353
C -5.519665 -0.151388 0.077325
H -5.920707 0.861161 -0.070818
C -4.113282 -0.311168 0.086217
C -0.83079 3.65498 -1.623222
H 0.277032 3.611365 -1.511003
H -1.154845 4.710438 -1.490548
H -1.092997 3.313575 -2.650808
C -0.455684 2.449773 2.256417
H 0.611084 2.241666 2.027025
H -0.584959 2.59399 3.351197
H -0.742804 3.380055 1.733703
F 2.638985 1.882757 0.666085
F 5.31031 1.605228 0.710985
F 6.466237 -0.798468 0.089731
F 4.900005 -2.935237 -0.592795
F 2.227423 -2.69138 -0.682418
N 0.072536 -1.259939 0.284452
N -1.238576 -0.907737 0.122678
O 0.359737 0.91694 -0.428439
O -3.335532 0.747726 -0.052012
O -1.436495 2.852647 -0.646835
O -1.323835 1.429446 1.764707
H -1.079614 0.578896 2.174161
O -1.676576 0.687486 -2.14662
