45

V -0.342505 -1.316871 -0.562901
C 1.945676 0.244386 -0.082717
C 3.401676 0.506142 -0.036243
C 4.313573 -0.515968 0.316491
C 5.697182 -0.286669 0.359405
C 6.201495 0.984256 0.035709
C 5.319503 2.017951 -0.321541
C 3.936497 1.776881 -0.357906
C -1.145498 1.599756 0.282795
H -0.877007 2.649323 0.505635
C -2.543448 1.241349 0.196468
C -2.952873 -0.142229 0.129529
C -4.356113 -0.410754 0.067643
C -5.308491 0.606401 0.109864
H -6.379101 0.366204 0.087745
C -4.873596 1.934524 0.180999
C -3.516093 2.259037 0.228994
H -3.228768 3.318158 0.290309
C 0.845915 -2.651052 2.252091
H 1.863383 -2.426916 1.883654
H 0.543465 -3.644427 1.857873
H 0.860483 -2.671576 3.362729
C -0.673455 -4.005066 -1.557123
H -0.733664 -3.525295 -2.55925
H -1.679192 -4.401848 -1.294207
H 0.044314 -4.853183 -1.589185
F 3.888321 -1.735768 0.65975
F 6.532466 -1.26439 0.713332
F 7.512079 1.209296 0.071926
F 5.801182 3.219796 -0.640398
F 3.15224 2.782271 -0.736778
N -0.166368 0.753363 0.093827
N 1.104129 1.214944 0.229347
N -4.852738 -1.801807 -0.043487
N -5.877626 3.019613 0.214831
O -0.662934 -0.943883 -2.056651
O 1.548137 -0.954253 -0.425885
O -2.082863 -1.110399 0.196851
O -0.006089 -1.608878 1.771089
H -0.926685 -1.788766 2.044567
O -0.27182 -3.083551 -0.573844
O -4.1221 -2.631264 -0.580485
O -5.982653 -2.020988 0.394008
O -7.062629 2.692678 0.168791
O -5.455759 4.17417 0.288375
