43

V 0.64718 1.537951 -0.714245
C -1.50589 -0.213269 -0.173823
C -2.934153 -0.583912 -0.036212
C -3.838667 0.30433 0.583795
C -5.197808 -0.011688 0.725448
C -5.674997 -1.242835 0.242423
C -4.793921 -2.146455 -0.375926
C -3.435129 -1.815509 -0.509199
C 1.697937 -1.280269 0.145052
H 1.517598 -2.347349 0.373486
C 3.05501 -0.795606 0.108544
C 3.349896 0.610293 0.019443
C 4.703883 1.037073 0.047271
H 4.902655 2.115875 -0.019146
C 5.740805 0.115053 0.151787
H 6.794782 0.423261 0.168748
C 5.436667 -1.257566 0.23957
C 4.1204 -1.714318 0.226697
H 3.933098 -2.794273 0.306627
C -0.088739 4.115349 -1.802359
H 0.249844 3.692072 -2.774869
H 0.388772 5.108062 -1.647004
H -1.19064 4.269953 -1.843315
C 0.790793 2.862638 2.34497
H 1.853794 2.562879 2.402906
H 0.387291 2.948825 3.377042
H 0.733644 3.849829 1.836738
F -3.414378 1.469141 1.093594
F -6.032749 0.836444 1.329062
F -6.963017 -1.553066 0.373174
F -5.254936 -3.307889 -0.842372
F -2.639735 -2.686984 -1.125658
N -0.576933 -1.111591 0.082736
N 0.647234 -0.529127 -0.0642
N 6.535183 -2.235372 0.355511
O -1.237526 1.022701 -0.507075
O 2.393651 1.512452 -0.048161
O 0.868032 1.204787 -2.23602
O 0.236043 3.269317 -0.731664
O 0.111935 1.849814 1.606355
H -0.819828 2.117116 1.474785
O 7.686154 -1.795119 0.368276
O 6.230746 -3.427097 0.433065
