60

C -0.306666 -3.027183 0.201371
C -0.186882 -2.940224 -1.207525
C -2.302175 -1.034233 -0.453641
H -2.653342 -0.351975 -1.2556
H -2.648581 -2.048274 -0.754628
C -2.942504 -0.665865 0.898419
H -2.637313 -1.412163 1.663446
H -2.559264 0.313179 1.250817
C -4.454921 -0.616125 0.820435
C -5.207833 -1.803684 0.702011
H -4.686087 -2.774806 0.706642
C -6.604675 -1.766753 0.586494
H -7.1726 -2.706202 0.500331
C -7.279665 -0.534781 0.586004
H -8.376303 -0.503558 0.496482
C -6.544984 0.654592 0.706751
H -7.064523 1.625405 0.714861
C -5.146361 0.612689 0.822252
H -4.575474 1.549384 0.92319
C -0.820206 2.193096 -0.345083
C -2.19434 2.353075 -0.628331
H -2.8293 1.494786 -0.871192
C -2.734287 3.641673 -0.615858
H -3.804643 3.771441 -0.83889
C -1.938189 4.782882 -0.335733
H -2.403106 5.780317 -0.334876
C -0.575166 4.649177 -0.077958
H 0.051168 5.53199 0.123442
C 0.001094 3.355794 -0.084433
C 1.329828 2.879264 0.109644
H 2.221281 3.481709 0.318283
C 1.271581 1.488681 -0.029965
C 2.324177 0.498484 0.024966
C 3.685073 0.805289 0.255376
H 3.953186 1.856702 0.412715
C 4.658486 -0.199269 0.279961
C 4.20754 -1.526255 0.062959
H 4.905677 -2.374759 0.06334
C 2.853893 -1.769868 -0.154903
H 2.489507 -2.796093 -0.321726
C 6.146656 0.082468 0.525156
C 6.42475 1.579885 0.737929
H 6.137876 2.182753 -0.146959
H 7.507747 1.738101 0.911325
H 5.884713 1.978685 1.620027
C 6.600167 -0.689328 1.78575
H 6.029905 -0.362541 2.678469
H 7.677032 -0.506185 1.978463
H 6.459775 -1.782753 1.674826
C 6.955345 -0.401969 -0.700313
H 6.825003 -1.487491 -0.879836
H 8.037055 -0.214598 -0.541838
H 6.643769 0.134059 -1.619285
N -0.031749 1.056295 -0.290693
N 1.925512 -0.793562 -0.175326
Pt -0.243578 -0.984793 -0.384275
H -1.278132 -3.274467 0.660948
H 0.568578 -3.261154 0.831636
H -1.063845 -3.114272 -1.852986
H 0.784521 -3.101531 -1.706239
