56

Pd 1.221569 -0.209114 0.195589
P -0.996359 0.020873 0.030924
O 1.563523 1.848112 -0.137104
O 3.27114 -0.524587 0.386433
O 1.73715 -3.08911 -1.508458
O 3.002959 -3.519089 0.311696
C 5.584125 -0.134926 0.464209
C 4.17152 0.377559 0.27188
C 3.965553 1.75287 0.009064
C 2.719453 2.396527 -0.17248
C 2.693094 3.887916 -0.446546
C 0.955 -2.238146 0.571696
C 2.004195 -3.003635 -0.157831
C -1.557792 1.763821 0.195753
C -2.323324 2.210898 1.289864
C -2.693537 3.56217 1.383811
C -2.303333 4.471843 0.389609
C -1.539029 4.028253 -0.702938
C -1.16093 2.683153 -0.799605
C -1.946029 -0.877112 1.327364
C -1.407181 -0.899649 2.631431
C -2.100141 -1.53723 3.669665
C -3.326832 -2.171407 3.411405
C -3.858527 -2.163558 2.112695
C -3.173976 -1.516571 1.071547
C -1.735717 -0.505073 -1.569273
C -2.96955 0.028779 -2.001682
C -3.536858 -0.401324 -3.209801
C -2.877515 -1.361799 -3.99477
C -1.647443 -1.887185 -3.57023
C -1.070451 -1.461455 -2.363252
H 5.721344 -1.05539 -0.136807
H 6.354048 0.612221 0.197803
H 5.720354 -0.430699 1.525261
H 4.862789 2.383461 -0.054177
H 3.694439 4.353349 -0.39706
H 2.016886 4.381429 0.280407
H 2.261053 4.067312 -1.452987
H -0.053158 -2.596436 0.285857
H 1.099812 -2.353921 1.662382
H 2.496721 -3.590085 -1.875367
H -2.636788 1.50142 2.069663
H -3.29544 3.902634 2.240063
H -2.595982 5.530261 0.464586
H -1.228445 4.738502 -1.484396
H -0.552853 2.340333 -1.648556
H -0.431431 -0.423728 2.820527
H -1.673473 -1.549579 4.684008
H -3.865358 -2.681468 4.224508
H -4.814023 -2.668414 1.9041
H -3.593205 -1.517332 0.054615
H -3.480704 0.791202 -1.394285
H -4.497609 0.020506 -3.542371
H -3.322422 -1.695267 -4.944814
H -1.121788 -2.633253 -4.185285
H -0.098401 -1.871853 -2.048648
