84

Ru -0.783367 -0.520733 0.165576
S 0.396087 -0.445003 -1.949536
P -2.59514 0.47932 -0.852436
P 0.125749 1.552594 0.694427
C 2.012321 -0.372214 -1.525351
C 3.220807 -0.309446 -1.233271
C 4.609352 -0.226345 -0.945518
C 5.086412 -0.002076 0.377514
C 6.457317 0.081003 0.644836
C 7.397874 -0.055414 -0.390241
C 6.94508 -0.277253 -1.702779
C 5.577219 -0.362391 -1.981453
C -2.263496 1.918038 -2.000367
C -3.432863 2.508344 -2.786679
C -3.918939 1.189171 0.288479
C -5.395277 1.036928 -0.082366
C -3.590245 -0.63739 -1.974
C -2.789639 -1.179033 -3.156848
C 1.589756 1.424788 1.841963
C 2.343636 2.699501 2.215459
C 0.870971 2.577783 -0.698582
C 0.747786 4.100301 -0.651088
C -0.947885 2.81411 1.571263
C -1.595872 2.299622 2.851361
C -1.521052 -2.651747 0.321743
C -1.934899 -1.88653 1.489153
C -0.747266 -1.470021 2.198524
C 0.409177 -1.94484 1.453934
C -0.083736 -2.668341 0.308925
C -2.393139 -3.525335 -0.528689
C -3.338329 -1.80912 2.010639
C -0.717605 -0.969655 3.611521
C 1.841766 -1.951657 1.895104
C 0.766022 -3.439647 -0.650497
H 4.359113 0.104987 1.195573
H 6.797132 0.254458 1.677923
H 8.475208 0.009862 -0.176105
H 7.67147 -0.386491 -2.523306
H 5.227286 -0.536487 -3.009436
H -4.221226 2.915439 -2.121643
H -3.085402 3.34437 -3.428257
H -3.908045 1.763091 -3.455562
H -6.035797 1.517809 0.685968
H -5.642228 1.504187 -1.055743
H -5.698973 -0.027324 -0.139311
H -3.376393 -1.93265 -3.720664
H -2.512515 -0.374191 -3.86733
H -1.844432 -1.65197 -2.823732
H 3.187358 2.462975 2.896572
H 2.77954 3.195868 1.32618
H 1.699498 3.436423 2.737323
H 1.202977 4.545117 0.255713
H 1.262846 4.546025 -1.527214
H -0.307274 4.440176 -0.691537
H -0.842417 2.099496 3.639085
H -2.31845 3.034574 3.26095
H -2.134302 1.351501 2.658606
H -3.458679 -3.232408 -0.474101
H -2.092082 -3.513269 -1.593456
H -2.332827 -4.581399 -0.184179
H -3.600151 -2.732063 2.573651
H -3.476953 -0.954862 2.7012
H -4.081765 -1.704374 1.195936
H 0.123843 -0.277003 3.803855
H -1.65072 -0.447771 3.891804
H -0.593605 -1.826993 4.309503
H 2.144417 -2.970858 2.221135
H 2.521638 -1.656735 1.0706
H 2.019336 -1.269591 2.746538
H 0.296972 -3.510054 -1.649539
H 1.759476 -2.971356 -0.782588
H 0.918943 -4.472142 -0.266437
H -1.796638 2.698656 -1.366519
H -1.456202 1.565669 -2.67728
H -3.728994 0.72422 1.273496
H -3.658409 2.261583 0.410075
H -3.957207 -1.466523 -1.337311
H -4.489644 -0.092027 -2.324746
H 1.231265 0.898457 2.748584
H 2.258782 0.714009 1.316384
H 1.934733 2.265042 -0.740416
H 0.436305 2.178116 -1.633534
H -0.342217 3.720472 1.773459
H -1.724468 3.122714 0.84106
