67

Au 0.23214 -1.328135 -0.455359
S 2.173173 -2.598495 -0.914763
P -1.776383 -0.254905 -0.090257
C 2.277821 2.344722 -1.854903
H 2.863829 1.742448 -2.563401
C 2.185272 1.877789 -0.517325
C 1.653344 3.523055 -2.244824
H 1.74689 3.883421 -3.279448
C 0.895437 4.263103 -1.30365
H 0.395068 5.192747 -1.612617
C 0.781656 3.831894 0.013244
H 0.200758 4.409185 0.747168
C 1.435175 2.643403 0.425406
C 1.940139 0.783881 3.583836
H 1.364339 1.432449 4.25915
C 2.004402 1.104994 2.205404
C 2.617982 -0.327494 4.069611
H 2.571003 -0.56515 5.142739
C 3.385281 -1.139701 3.200089
H 3.935751 -2.003903 3.5977
C 3.451996 -0.83354 1.847515
H 4.060092 -1.456028 1.179357
C 2.754417 0.280717 1.308599
C 2.792985 0.619262 -0.1091
N 3.382216 -0.121705 -1.030644
N 1.348477 2.212373 1.725625
H 0.732654 2.723276 2.3657
N 4.579723 -1.950584 -1.762115
H 4.546455 -2.943932 -2.000818
C 3.460619 -1.42942 -1.211919
C 5.794594 -1.197158 -2.009505
H 6.304397 -1.597373 -2.905893
H 6.498403 -1.243698 -1.150458
H 5.529081 -0.136349 -2.18276
C -1.771927 0.877982 1.355341
C -1.447646 0.346307 2.621821
H -1.186537 -0.719027 2.721969
C -1.464619 1.173092 3.753374
H -1.232896 0.748773 4.741724
C -1.776852 2.53918 3.6261
H -1.794108 3.186078 4.516312
C -2.087366 3.071477 2.363181
H -2.347142 4.136374 2.262171
C -2.093709 2.243029 1.2279
H -2.349822 2.657907 0.242004
C -2.295365 0.774004 -1.509377
C -1.303662 1.442149 -2.256179
H -0.239804 1.305586 -2.007462
C -1.675 2.278609 -3.317816
H -0.897071 2.796834 -3.897965
C -3.030991 2.442452 -3.644414
H -3.320372 3.091016 -4.484837
C -4.018683 1.769826 -2.906311
H -5.080689 1.890385 -3.167052
C -3.656726 0.935821 -1.838002
H -4.431958 0.404458 -1.265811
C -3.142951 -1.425641 0.228463
C -4.210502 -1.095547 1.089039
H -4.212985 -0.136352 1.628173
C -5.269999 -1.999095 1.260686
H -6.101228 -1.7422 1.934134
C -5.269213 -3.22619 0.578307
H -6.100616 -3.932997 0.718718
C -4.205733 -3.555836 -0.278006
H -4.201022 -4.519432 -0.808637
C -3.141379 -2.660892 -0.452968
H -2.302277 -2.920352 -1.118156
