53

Zr -3e-06 -0.912683 2.3e-05
Cl -1.659503 -2.533469 -0.7524
Cl 1.659471 -2.533447 0.752563
P -0.144658 1.299184 1.617307
P 0.144679 1.298953 -1.617553
C -1.759961 0.604944 1.18515
C -1.988841 -0.668519 1.786634
C -0.823675 -1.16075 2.471374
C 0.235584 -0.215959 2.459913
H 1.213106 -0.422128 2.918806
C -3.305892 -1.385609 1.833945
H -4.134693 -0.725441 1.519484
H -3.506192 -1.734056 2.867338
H -3.307324 -2.277219 1.172913
C -0.783058 -2.484451 3.180335
H 0.259186 -2.793758 3.380055
H -1.268097 -3.280097 2.581761
H -1.319524 -2.420374 4.151589
C -2.724166 1.353967 0.349404
C -2.856422 2.753492 0.50192
H -2.260971 3.264874 1.273854
C -3.735125 3.486093 -0.306602
H -3.823951 4.574305 -0.167771
C -4.501223 2.836249 -1.287514
H -5.191 3.411882 -1.923142
C -4.376594 1.447854 -1.455475
H -4.963569 0.930343 -2.229681
C -3.496874 0.712438 -0.649428
H -3.376416 -0.368663 -0.814236
C 1.759989 0.604831 -1.185212
C 1.988958 -0.668689 -1.786539
C 0.823844 -1.161063 -2.471266
C -0.235449 -0.216314 -2.459994
H -1.212936 -0.422583 -2.918918
C 3.306035 -1.385736 -1.833713
H 3.506457 -1.73415 -2.867095
H 3.307411 -2.277366 -1.172708
H 4.134789 -0.725561 -1.519147
C 0.783321 -2.484863 -3.180046
H 1.268348 -3.280406 -2.581325
H 1.319853 -2.420906 -4.151271
H -0.258899 -2.794236 -3.379792
C 2.724112 1.354 -0.349501
C 3.496729 0.712644 0.649514
H 3.376263 -0.36843 0.814492
C 4.37636 1.448202 1.45553
H 4.963262 0.930825 2.22988
C 4.500986 2.836572 1.287356
H 5.190688 3.412317 1.922962
C 3.734972 3.486246 0.306267
H 3.823792 4.574438 0.167272
C 2.856355 2.753503 -0.502222
H 2.260966 3.264753 -1.27429
