53

Hf 0.054881 0.229303 -0.270902
Cl 1.277393 1.705977 1.198408
Cl -0.708441 -1.290086 1.452048
P 2.166267 0.322075 -2.016877
P -2.128164 0.365949 -1.981426
C 2.529455 -0.760066 -0.610433
C 1.696952 -1.911591 -0.575617
C 0.707602 -1.904827 -1.629378
C 0.848764 -0.784868 -2.480546
H 0.20569 -0.634314 -3.358884
C 1.870617 -3.090319 0.337346
H 1.772911 -4.033724 -0.236602
H 1.094358 -3.10406 1.131214
H 2.86283 -3.078171 0.823821
C -0.286701 -3.013935 -1.832344
H -0.750309 -3.322024 -0.874393
H 0.211808 -3.909585 -2.261602
H -1.089935 -2.703848 -2.527317
C 3.645304 -0.482404 0.316764
C 4.862837 0.033636 -0.182167
H 4.964918 0.20965 -1.264357
C 5.936758 0.30386 0.676673
H 6.877244 0.701074 0.265514
C 5.814397 0.064489 2.054155
H 6.656992 0.275753 2.729984
C 4.606859 -0.437521 2.566242
H 4.4946 -0.608648 3.647626
C 3.531167 -0.703618 1.710101
H 2.574748 -1.050731 2.12646
C -2.600474 0.704316 -0.278531
C -1.959673 1.863898 0.254301
C -1.120273 2.518787 -0.723662
C -1.047018 1.788602 -1.932055
H -0.446474 2.128736 -2.787832
C -2.130106 2.39003 1.652946
H -1.175642 2.80599 2.028619
H -2.448988 1.589214 2.345373
H -2.888771 3.200919 1.688689
C -0.481656 3.860548 -0.514237
H -0.010004 3.944935 0.482646
H -1.25588 4.653353 -0.595481
H 0.293926 4.057117 -1.278141
C -3.645543 -0.111096 0.376788
C -3.731725 -1.504934 0.146995
H -2.962906 -1.994399 -0.468206
C -4.765547 -2.26556 0.703592
H -4.80476 -3.349352 0.516228
C -5.742638 -1.653019 1.505617
H -6.552397 -2.252214 1.948718
C -5.681339 -0.269986 1.730986
H -6.450905 0.224823 2.342864
C -4.646794 0.49364 1.171398
H -4.635584 1.580829 1.327226
