85

Rh -0.067517 -0.732904 -0.509425
Cl 0.067132 -2.374757 -2.209847
P 2.197415 -0.314705 -0.699585
C 3.263481 -1.670569 0.058544
H 4.30874 -1.301134 -0.021285
C 2.904105 -1.825736 1.540294
H 1.85283 -2.162412 1.643868
H 3.008589 -0.881558 2.109788
H 3.557992 -2.58529 2.01692
C 3.160098 -3.007986 -0.680433
H 3.761738 -3.771655 -0.144556
H 3.545555 -2.949294 -1.716915
H 2.110841 -3.35889 -0.73919
C 2.731821 -0.29638 -2.503762
H 2.519858 -1.35376 -2.77283
C 1.809146 0.553804 -3.38591
H 1.90099 1.637928 -3.179851
H 0.753993 0.246893 -3.246602
H 2.064937 0.393784 -4.454218
C 4.213304 0.002036 -2.751257
H 4.463696 -0.20354 -3.813474
H 4.887052 -0.619318 -2.128323
H 4.457134 1.066657 -2.560956
C 2.822698 1.24397 0.154289
H 2.276023 1.197164 1.118343
C 2.3453 2.506177 -0.571225
H 2.499917 3.390377 0.07989
H 1.266055 2.459934 -0.811447
H 2.905959 2.678099 -1.512415
C 4.320391 1.313661 0.479306
H 4.954703 1.335462 -0.427863
H 4.660481 0.474256 1.115727
H 4.520241 2.247407 1.045618
B -1.376609 -1.093603 1.272451
N -2.140762 -0.640534 0.003878
C -1.466074 0.645931 0.096527
C -0.705599 0.338724 1.294542
C -1.538191 -2.393041 2.193272
C -0.676843 -2.28424 3.467484
H -0.924755 -1.384488 4.064995
H 0.405409 -2.257356 3.230755
H -0.842955 -3.173139 4.114057
C -1.106064 -3.675502 1.446885
H -1.213986 -4.561378 2.11125
H -0.045285 -3.613109 1.130446
H -1.696447 -3.861139 0.532655
C -3.009482 -2.508493 2.658318
H -3.713407 -2.670503 1.820073
H -3.337757 -1.596478 3.199604
H -3.125753 -3.367269 3.355237
C -3.300169 -1.003951 -0.86011
C -3.358254 -2.529934 -1.013491
H -2.415813 -2.905934 -1.457656
H -4.197484 -2.791056 -1.687457
H -3.535101 -3.037899 -0.049044
C -4.58437 -0.479674 -0.18757
H -4.695738 -0.890695 0.834615
H -5.470371 -0.781263 -0.781323
H -4.579379 0.625638 -0.123988
C -3.149528 -0.394792 -2.266184
H -3.234306 0.706151 -2.261889
H -3.956216 -0.790574 -2.913725
H -2.175629 -0.687165 -2.706374
C -1.870057 1.922257 -0.547391
C -2.866456 2.722217 0.053477
H -3.338023 2.385658 0.989017
C -3.234598 3.946165 -0.522747
H -4.012181 4.562119 -0.046092
C -2.606713 4.38972 -1.698741
H -2.894101 5.35259 -2.147572
C -1.61025 3.60223 -2.296898
H -1.11413 3.943449 -3.21811
C -1.245584 2.374462 -1.725723
H -0.480052 1.736689 -2.189794
C 0.087185 1.241164 2.137449
C 0.0974 2.645223 1.930963
H -0.508963 3.081048 1.127703
C 0.879264 3.493254 2.726761
H 0.863583 4.577437 2.534925
C 1.679393 2.972829 3.755917
H 2.296333 3.640088 4.376509
C 1.673193 1.587145 3.986022
H 2.288846 1.158279 4.791827
C 0.887713 0.739609 3.195241
H 0.90297 -0.338644 3.381924
