63

Ru 0.915732 -0.320532 -0.065405
Cl -0.246526 -0.07032 -2.143274
C -0.469842 -3.310619 -0.734574
H -0.163764 -4.355003 -0.949677
H -0.761148 -2.834128 -1.690739
H -1.371346 -3.356423 -0.101168
N -0.282443 2.159519 0.796723
N -1.836387 0.669898 1.079809
N 1.611239 1.619477 -0.366009
C 1.676507 -1.256803 1.788415
C 1.60416 -0.816507 3.229718
H 2.36902 -0.066464 3.486943
H 1.762726 -1.688415 3.898466
H 0.615672 -0.389394 3.483391
C 2.77472 -0.886003 0.929469
C 3.843587 0.048125 1.439599
H 3.43361 0.793433 2.142969
H 4.33085 0.612086 0.625728
H 4.636708 -0.519389 1.970436
C 2.912025 -1.499886 -0.390018
C 4.155635 -1.298822 -1.224857
H 4.645836 -2.277211 -1.406793
H 4.902622 -0.655319 -0.73205
H 3.931533 -0.869223 -2.22126
C 1.847319 -2.283943 -0.90503
C 1.874545 -2.80662 -2.312953
H 2.866169 -2.717792 -2.78491
H 1.14603 -2.23333 -2.927503
H 1.572782 -3.870766 -2.346864
C 0.655953 -2.537884 -0.098599
C 0.630235 -2.118117 1.272318
C -0.426478 -2.58721 2.238368
H -1.248817 -3.138427 1.756071
H -0.85729 -1.760983 2.83182
H 0.051794 -3.278937 2.963506
C -0.539458 0.798061 0.691324
C -1.397998 2.850447 1.273602
H -1.4146 3.931215 1.435229
C -2.370046 1.908153 1.449133
H -3.408148 2.008473 1.779577
C -2.651121 -0.547941 0.933196
H -2.87128 -0.959478 1.938297
H -2.008411 -1.262105 0.388874
C -3.933684 -0.28171 0.179057
C -3.890372 0.039412 -1.193417
H -2.917702 0.078359 -1.711694
C -5.079054 0.303001 -1.887139
H -5.041654 0.549115 -2.958966
C -6.315784 0.247037 -1.221428
H -7.246877 0.451971 -1.770781
C -6.363358 -0.075072 0.143163
H -7.329612 -0.125189 0.666865
C -5.174045 -0.336795 0.842083
H -5.211966 -0.595116 1.912983
C 0.882979 2.626002 0.190479
C 2.700566 1.949435 -1.099349
H 3.221986 1.114747 -1.584217
C 3.131822 3.268596 -1.244817
H 4.024087 3.48284 -1.848576
C 2.405734 4.296649 -0.620234
H 2.723809 5.345118 -0.711401
C 1.25336 3.97406 0.103513
H 0.64179 4.752022 0.579167
