37

Cd 0.000156 0.06665 0.349741
I -0.002671 -1.949487 2.096365
N 1.816436 -0.249139 -1.211808
C 2.018319 -1.330088 -1.976876
H 1.229625 -2.099539 -1.962493
C 3.177592 -1.504146 -2.752773
H 3.297717 -2.409385 -3.364739
C 4.163409 -0.509668 -2.719895
H 5.08434 -0.611223 -3.312736
C 3.960731 0.61527 -1.907262
H 4.716202 1.412245 -1.840569
C 2.773245 0.709077 -1.159492
C 2.544324 1.853248 -0.256092
H 3.319661 2.650266 -0.246726
N 1.510815 1.911475 0.503828
C 1.306002 3.036334 1.400821
H 2.163847 3.744656 1.351563
H 1.268992 2.63047 2.436027
C 0.001624 3.795485 1.112344
H 0.001803 4.699865 1.754774
H 0.00243 4.156284 0.062054
C -1.30396 3.037872 1.399369
H -1.26863 2.632116 2.434678
H -2.160939 3.747169 1.349015
N -1.508979 1.913113 0.502316
C -2.541867 1.855721 -0.258509
H -3.316488 2.653448 -0.249948
C -2.771076 0.711595 -1.161898
N -1.815124 -0.247525 -1.213187
C -2.017393 -1.328498 -1.978121
H -1.22946 -2.098712 -1.962826
C -3.176178 -1.501662 -2.754943
H -3.296659 -2.406956 -3.366759
C -4.161075 -0.506236 -2.723159
H -5.081603 -0.607073 -3.316748
C -3.958023 0.618715 -1.910638
H -4.712808 1.416409 -1.844766
