37

Pd -2e-05 -6.4e-05 -0.000122
Cl 0.316172 -2.15318 -0.882337
N 1.590727 -0.124048 1.339997
H 1.395942 0.764654 1.83601
C 1.457155 -1.268432 2.262171
H 2.336208 -1.33304 2.937808
H 1.351112 -2.201852 1.680358
H 0.534312 -1.125809 2.85345
C 2.834291 0.011688 0.618069
C 4.797119 -0.923407 -0.453695
H 5.397309 -1.80234 -0.733095
C 3.606196 -1.107835 0.264743
H 3.269594 -2.120208 0.52118
C 3.247727 1.306712 0.246896
H 2.607057 2.165735 0.500869
C 4.439234 1.476427 -0.467313
H 4.757869 2.489977 -0.753795
C 5.220835 0.362828 -0.819219
H 6.156472 0.498286 -1.381797
Cl -0.316272 2.153 0.882146
N -1.590873 0.123929 -1.340205
H -1.396245 -0.764825 -1.836176
C -1.457174 1.268227 -2.262429
H -2.336089 1.33278 -2.938259
H -1.35127 2.201686 -1.680652
H -0.534218 1.125591 -2.853525
C -2.834343 -0.011615 -0.618059
C -4.797742 0.923549 0.452621
H -5.398497 1.80245 0.730902
C -3.606989 1.107833 -0.26616
H -3.271204 2.120112 -0.524025
C -3.246915 -1.306444 -0.245188
H -2.605682 -2.16536 -0.498119
C -4.438267 -1.476018 0.46929
H -4.756222 -2.48941 0.757086
C -5.220579 -0.362478 0.819839
H -6.156079 -0.497831 1.38267
