61

Pd 0.020379 -0.183317 0.827989
P -1.451278 -0.205239 -0.858982
P 1.570778 0.289797 -0.72303
O -1.603613 -0.508961 2.137392
O -1.524638 1.701635 2.177385
O -3.092824 0.6194 3.257349
O 1.455658 -0.287567 2.367433
O 1.372245 -2.414426 1.766485
O 2.813956 -1.732772 3.268594
N -2.096135 0.661941 2.550164
N 1.899678 -1.54136 2.47885
C -1.978256 -1.920923 -1.205203
C -2.975001 -2.186932 -2.168515
H -3.474948 -1.357117 -2.692944
C -3.341441 -3.511348 -2.442237
H -4.12091 -3.71997 -3.190637
C -2.719835 -4.569565 -1.756004
H -3.013797 -5.608362 -1.970432
C -1.733653 -4.304262 -0.793926
H -1.252446 -5.129738 -0.248631
C -1.358495 -2.980869 -0.512002
H -0.590857 -2.765643 0.251209
C -2.961817 0.780308 -0.633188
C -4.021682 0.212889 0.107054
H -3.955399 -0.828677 0.453508
C -5.135359 0.994991 0.439362
H -5.946034 0.55485 1.038069
C -5.206773 2.334271 0.026841
H -6.081812 2.945981 0.292864
C -4.153629 2.900044 -0.709597
H -4.201881 3.953381 -1.023863
C -3.026489 2.132242 -1.029816
H -2.192101 2.600177 -1.573096
C -0.597081 0.369745 -2.414276
H -1.15396 0.017226 -3.305521
H -0.609657 1.47896 -2.414495
C 0.844768 -0.14522 -2.384634
H 1.456884 0.285703 -3.202884
H 0.869058 -1.252065 -2.469793
C 3.229768 -0.45061 -0.631498
C 3.978968 -0.219796 0.543922
H 3.549358 0.379285 1.360982
C 5.241883 -0.806616 0.689394
H 5.806924 -0.645733 1.619108
C 5.770774 -1.610289 -0.333712
H 6.762096 -2.072673 -0.213623
C 5.030809 -1.834597 -1.504969
H 5.441442 -2.467036 -2.306434
C 3.75875 -1.262319 -1.655887
H 3.185178 -1.458193 -2.573452
C 1.820423 2.104192 -0.807263
C 0.942915 2.950168 -0.097292
H 0.160145 2.512772 0.547199
C 1.089629 4.342912 -0.199272
H 0.408471 5.000498 0.361364
C 2.106709 4.889277 -0.997216
H 2.222733 5.981437 -1.069484
C 2.988264 4.044674 -1.694452
H 3.793677 4.47384 -2.309601
C 2.850104 2.653077 -1.599877
H 3.551311 1.990113 -2.131371
