76

Fe -1.007245 0.000739 -0.178449
H -0.906508 0.000754 1.313214
P -1.201966 2.15654 -0.113237
P -1.207172 -2.154542 -0.112304
N -2.658024 0.002596 -1.049484
N 1.933821 -0.003015 -0.402606
C -2.643317 2.479792 -1.246624
H -3.23944 3.369358 -0.956087
H -2.211696 2.676456 -2.249067
C -3.477988 1.196956 -1.275758
H -4.292013 1.253372 -0.508611
H -4.010215 1.112743 -2.255421
C -3.481276 -1.189752 -1.274405
H -4.013824 -1.104913 -2.25384
H -4.295015 -1.243419 -0.506757
C -2.649948 -2.474731 -1.244763
H -2.219295 -2.673161 -2.247279
H -3.248256 -3.36255 -0.953377
C 0.605356 2.811317 -2.157347
H 0.802159 1.723147 -2.198399
H 1.530218 3.343212 -2.463925
H -0.174836 3.051097 -2.909567
C 0.185818 3.252897 -0.749596
H 1.02548 3.012797 -0.059969
C -0.111275 4.754097 -0.686004
H -1.003285 5.016115 -1.293238
H 0.743544 5.333617 -1.094194
H -0.286571 5.111827 0.347563
C -0.549333 2.810866 2.53035
H -0.310021 1.73904 2.688645
H -0.837852 3.249657 3.508149
H 0.376763 3.319874 2.194531
C -1.692799 2.944197 1.520195
H -1.88563 4.01951 1.311828
C -2.981466 2.297461 2.04107
H -3.846876 2.496451 1.37881
H -3.233026 2.690508 3.048302
H -2.856463 1.197723 2.116597
C -2.98555 -2.290713 2.043264
H -2.857766 -1.191314 2.119016
H -3.237652 -2.68337 3.050513
H -3.851748 -2.487365 1.38133
C -1.698748 -2.940573 1.521681
H -1.894242 -4.015482 1.31372
C -0.55426 -2.809616 2.530995
H 0.370311 -3.321144 2.194815
H -0.843223 -3.24715 3.509227
H -0.312144 -1.73831 2.688568
C -0.12373 -4.754883 -0.685875
H -0.299803 -5.11227 0.347683
H 0.729397 -5.336709 -1.094327
H -1.016584 -5.014361 -1.292957
C 0.177489 -3.254493 -0.749322
H 1.018028 -3.016829 -0.059926
C 0.597773 -2.813809 -2.157121
H -0.183522 -3.050837 -2.909069
H 1.52078 -3.348577 -2.4643
H 0.798033 -1.726265 -2.197918
C 0.722565 -0.001375 -0.20652
C 3.24269 -0.003199 0.01742
C 4.265583 -0.004453 -0.973957
C 5.60656 -0.004692 -0.557601
H 6.400615 -0.005653 -1.32111
C 5.942348 -0.003742 0.804679
H 6.998421 -0.003955 1.113838
C 4.926079 -0.002537 1.771453
H 5.185002 -0.001797 2.842364
C 3.569222 -0.002251 1.405602
C 3.880923 -0.005477 -2.428567
H 3.259955 -0.891429 -2.678531
H 4.773384 -0.006395 -3.08328
H 3.260723 0.880603 -2.679976
C 2.472196 -0.001048 2.432319
H 1.80937 0.881593 2.317371
H 2.881885 -0.00036 3.460251
H 1.80884 -0.883492 2.318795
