36

Ta 9.9e-05 -1.176007 8e-06
P -0.000135 1.616782 9.3e-05
Cl 3e-05 -1.226529 2.373898
Cl 1.907593 -2.543955 0.000108
Cl 0.000184 -1.226625 -2.373904
Cl -1.9072 -2.544229 5e-06
Cl -0.000189 2.922164 -1.596126
Si 3.037014 0.913712 -0.000116
Si -3.037156 0.913323 -0.000149
N 1.248077 0.599393 3.2e-05
C -3.295444 2.782726 -0.000546
N -1.248186 0.599207 -8.7e-05
C -3.727703 0.163189 1.575109
Cl -0.000326 2.921666 1.596764
C 3.727697 0.163573 1.575078
C -3.727828 0.162766 -1.575162
C 3.727667 0.163241 -1.575175
C 3.295166 2.783137 -0.000439
H -2.861689 3.265467 0.897386
H -4.386599 2.986221 -0.000119
H -2.862487 3.264861 -0.899187
H -3.207047 0.580945 2.460214
H -3.597771 -0.936057 1.58746
H -4.80991 0.390052 1.666635
H 3.207071 0.581281 2.460222
H 4.809898 0.390489 1.666545
H 3.597822 -0.935682 1.587412
H -3.206474 0.57949 -2.460341
H -4.809776 0.390692 -1.66717
H -3.599004 -0.936612 -1.586842
H 3.206168 0.579867 -2.460314
H 3.599009 -0.936159 -1.586823
H 4.809572 0.391332 -1.667282
H 2.861293 3.265814 0.897469
H 2.862259 3.265272 -0.899103
H 4.386305 2.986714 0.000102
