85

Au -0.031731 -0.153029 -0.290135
C -2.016085 0.095576 0.062757
N -2.68545 1.282579 0.203535
C -4.018905 1.077084 0.542584
H -4.709621 1.910041 0.700195
C -4.197889 -0.280413 0.613269
H -5.078107 -0.886253 0.845145
C 1.9284 -0.32752 -0.498424
N -2.96612 -0.856542 0.318642
C 3.170141 -0.360368 -0.499843
C 4.60624 0.915837 1.662506
C 4.00681 1.478454 2.572262
H 3.464237 1.968925 3.366828
C -2.066121 2.573286 0.040322
C -1.344935 3.119799 1.126966
C -0.757439 4.385102 0.93662
H -0.184603 4.840887 1.758183
C -0.881102 5.063405 -0.280912
H -0.41029 6.049928 -0.408426
C -1.588784 4.487054 -1.343992
H -1.661161 5.02241 -2.301861
C -2.194974 3.22499 -1.209971
C -1.182835 2.389107 2.453942
H -1.668235 1.397169 2.355334
C -2.876167 2.546856 -2.392688
H -3.555879 1.767976 -1.988292
C -2.696547 -2.271265 0.32167
C -2.808195 -2.982304 -0.895477
C -2.531154 -4.361801 -0.86269
H -2.600111 -4.947822 -1.791434
C -2.156712 -4.994079 0.329218
H -1.939689 -6.073029 0.331624
C -2.044478 -4.258843 1.515849
H -1.732763 -4.764543 2.441921
C -2.310363 -2.877218 1.540612
C -3.148238 -2.287559 -2.207666
H -3.467223 -1.252374 -1.967898
C -2.119936 -2.070109 2.818984
H -2.552029 -1.062453 2.648843
C 4.590728 -0.373648 -0.465086
C 5.311734 0.261163 0.607361
C 6.71946 0.236592 0.620486
H 7.272946 0.719479 1.437453
C 7.445282 -0.400648 -0.402258
C 6.750091 -1.026664 -1.458659
H 7.289141 -1.532332 -2.270916
C 5.350177 -1.006183 -1.476526
H 4.810433 -1.494773 -2.300473
O 8.804365 -0.360237 -0.285139
C 9.579424 -0.986038 -1.286376
H 10.638378 -0.837891 -1.003168
H 9.409129 -0.534758 -2.290519
H 9.374237 -2.078974 -1.352286
C -1.895512 3.138995 3.592491
H -1.809322 2.575294 4.543938
H -2.97325 3.28196 3.373659
H -1.450932 4.142443 3.756588
C 0.299851 2.131779 2.773793
H 0.394513 1.535768 3.704725
H 0.854147 3.081647 2.922934
H 0.797853 1.571425 1.95624
C -3.733296 3.505971 -3.230185
H -4.475625 4.044396 -2.607107
H -4.282317 2.944601 -4.012879
H -3.114637 4.264655 -3.751948
C -1.822043 1.828542 -3.2577
H -1.222792 1.1156 -2.655201
H -1.118223 2.560472 -3.704721
H -2.306833 1.267436 -4.083164
C -4.313653 -2.966367 -2.943972
H -4.575759 -2.397369 -3.85902
H -5.218493 -3.029207 -2.306281
H -4.053805 -3.996853 -3.262436
C -1.894347 -2.182578 -3.094941
H -2.117125 -1.614657 -4.021418
H -1.529268 -3.188271 -3.389131
H -1.070578 -1.666159 -2.560103
C -2.861374 -2.684924 4.016098
H -3.942124 -2.815087 3.805189
H -2.760065 -2.033252 4.907544
H -2.449112 -3.677991 4.289176
C -0.620483 -1.877993 3.112833
H -0.101558 -1.399227 2.256419
H -0.124333 -2.851263 3.306374
H -0.476976 -1.237493 4.007376
