79

Ta -1.168322 0.115753 0.410351
P 2.311412 -0.006875 -0.019994
N 0.707854 0.004181 -0.006096
C -3.56382 0.664124 -0.411723
C -2.607267 0.793366 -1.47639
C -2.052525 -0.509586 -1.734111
C -2.659891 -1.434482 -0.814774
C -3.59463 -0.704994 -0.004565
C -4.425063 1.76067 0.132428
C -2.35279 2.028693 -2.288369
C -1.146922 -0.87722 -2.873028
C -2.482202 -2.9233 -0.831268
C -4.488967 -1.297231 1.039065
C 2.99284 0.976958 1.495664
C 2.797384 2.486406 1.249444
C 2.12138 0.616333 2.715623
C 4.47497 0.699589 1.801876
C 2.915029 0.820542 -1.658991
C 2.013448 2.046383 -1.910633
C 2.674342 -0.145086 -2.835502
C 4.395305 1.237819 -1.646238
C 2.921128 -1.838429 0.049602
C 2.74076 -2.379947 1.482066
C 1.986565 -2.669861 -0.85384
C 4.385945 -2.027142 -0.380271
C -0.939307 2.350512 0.624924
C -2.05042 0.654823 2.437832
C -0.938249 -1.715336 1.70544
H -4.650203 1.608627 1.205624
H -5.394202 1.81113 -0.409724
H -3.939618 2.750565 0.031887
H -2.506035 2.949692 -1.695353
H -3.039631 2.072524 -3.161663
H -1.318144 2.060563 -2.682989
H -0.446519 -1.689711 -2.599192
H -0.542912 -0.013377 -3.209426
H -1.736581 -1.228498 -3.748223
H -1.455005 -3.215964 -1.125219
H -3.178868 -3.390375 -1.561511
H -2.684317 -3.373587 0.158514
H -4.852021 -0.529976 1.748532
H -3.968051 -2.077185 1.629358
H -5.379408 -1.774786 0.575549
H 1.752885 2.724703 0.974134
H 3.47746 2.892933 0.478254
H 3.022522 3.021562 2.195987
H 1.051315 0.810352 2.514194
H 2.431332 1.259027 3.565953
H 2.22318 -0.43416 3.03453
H 5.140744 0.928256 0.948783
H 4.658065 -0.345017 2.115899
H 4.788591 1.349757 2.646184
H 2.177994 2.866076 -1.191703
H 0.945665 1.761044 -1.858144
H 2.227495 2.439641 -2.926568
H 3.357031 -1.014598 -2.833163
H 2.853671 0.407922 -3.78157
H 1.630677 -0.508856 -2.853392
H 4.610858 2.023707 -0.898824
H 4.6537 1.658671 -2.641375
H 5.078968 0.387657 -1.463265
H 1.705851 -2.240201 1.845995
H 3.444275 -1.930437 2.206658
H 2.944453 -3.471492 1.465656
H 2.118192 -2.460019 -1.928763
H 0.928034 -2.487198 -0.588399
H 2.20802 -3.745484 -0.692011
H 4.559579 -1.76434 -1.440477
H 4.652659 -3.099385 -0.265283
H 5.092967 -1.446506 0.241359
H -0.414658 2.754731 -0.269628
H -0.31979 2.593971 1.513935
H -1.887886 2.9126 0.744608
H -2.65341 -0.144402 2.916158
H -2.636409 1.597116 2.455266
H -1.168718 0.820681 3.0979
H -0.465123 -2.533182 1.116738
H -1.875458 -2.117626 2.141577
H -0.264151 -1.484914 2.558039
