74

Ta 1.129068 -0.112917 -0.321333
Cl 1.029252 -2.581161 -0.313929
P -2.341054 0.063945 0.018404
N -0.737026 0.124523 -0.024538
C 2.663319 1.649946 0.39732
C 3.600044 0.708631 -0.172547
C 3.528835 -0.50108 0.571024
C 2.54968 -0.332444 1.617174
C 2.038214 1.016491 1.530305
C 2.553343 3.102825 0.042035
C 4.520472 1.008927 -1.314046
C 4.31462 -1.755424 0.346972
C 2.251515 -1.346077 2.683318
C 1.152149 1.700035 2.531635
C -3.004462 1.818015 -0.434153
C -4.471249 2.050287 -0.034337
C -2.845466 2.042478 -1.95098
C -2.087184 2.852888 0.250805
C -2.878747 -0.4195 1.80668
C -4.342317 -0.880859 1.91097
C -2.658977 0.782251 2.745764
C -1.925651 -1.53353 2.287512
C -2.971153 -1.25011 -1.241312
C -4.464661 -1.095908 -1.579114
C -2.114582 -1.130779 -2.51797
C -2.706665 -2.663304 -0.682868
C 1.673826 -0.338124 -2.447212
C 1.210931 1.038976 -2.208859
H 2.754537 3.28009 -1.031808
H 3.285762 3.708224 0.620828
H 1.545284 3.506419 0.261161
H 3.977155 1.416097 -2.19156
H 5.06509 0.105956 -1.648282
H 5.27705 1.768234 -1.021628
H 3.639331 -2.632395 0.274166
H 5.018354 -1.935799 1.18774
H 4.906266 -1.708753 -0.586753
H 1.370939 -1.056974 3.289415
H 3.111705 -1.454855 3.378991
H 2.040461 -2.339603 2.239347
H 0.543822 0.972461 3.101594
H 0.456292 2.414448 2.050985
H 1.759693 2.271254 3.267262
H -5.161478 1.322368 -0.500464
H -4.778418 3.06112 -0.377495
H -4.624673 2.021013 1.060739
H -3.527683 1.420725 -2.558874
H -1.803707 1.860319 -2.278314
H -3.084739 3.104057 -2.171192
H -2.172046 2.853968 1.350587
H -2.37174 3.863687 -0.109265
H -1.029068 2.669723 -0.018869
H -4.535959 -1.81261 1.34798
H -5.060116 -0.111358 1.568938
H -4.571634 -1.093297 2.976862
H -3.373644 1.608187 2.573044
H -1.628944 1.175795 2.664235
H -2.804511 0.43713 3.79095
H -2.055663 -2.486748 1.750045
H -2.12172 -1.719553 3.364296
H -0.86827 -1.231304 2.168485
H -5.116654 -1.152879 -0.687245
H -4.759417 -1.927185 -2.254012
H -4.687999 -0.153136 -2.113372
H -1.04816 -1.314473 -2.291444
H -2.203175 -0.157627 -3.028408
H -2.448578 -1.91585 -3.22804
H -1.642592 -2.799521 -0.40286
H -2.931014 -3.392259 -1.490003
H -3.355071 -2.921792 0.174553
H 2.734169 -0.51121 -2.700208
H 1.012973 -1.044942 -2.981196
H 0.197557 1.29794 -2.569017
H 1.910987 1.879083 -2.360781
