34

Re 0.214881 -0.285149 -0.284812
S 1.465628 1.465422 -1.135399
S 3.15722 1.16836 0.090033
S 2.304378 -0.685527 0.632353
Cl 0.289381 -2.676857 -0.581636
Cl -0.640023 -0.306299 -2.535924
C -0.378436 0.905193 1.451456
C -0.634795 -0.487631 1.814654
C -1.768154 -0.947555 1.045728
C -2.159042 0.092418 0.149446
C -1.304611 1.239477 0.368304
C -1.518038 2.595997 -0.239303
C -2.64814 3.369918 0.452945
C 0.464487 1.875086 2.218835
C -0.006515 -1.264206 2.928966
C -2.409043 -2.285714 1.170663
C -3.289316 0.003922 -0.821609
H -1.730303 2.471715 -1.321729
H -0.569839 3.167508 -0.184922
H -2.781181 4.369816 -0.006061
H -2.433142 3.517645 1.530838
H -3.615038 2.832334 0.37673
H -0.126388 2.309519 3.053327
H 0.815938 2.703627 1.57648
H 1.359692 1.387345 2.64748
H -0.676189 -1.282701 3.815386
H 0.959782 -0.822913 3.234768
H 0.181052 -2.310435 2.616519
H -3.395635 -2.312412 0.672902
H -2.536652 -2.56009 2.236725
H -1.761071 -3.057064 0.696667
H -4.254871 0.017343 -0.272099
H -3.236584 -0.93146 -1.411122
H -3.280698 0.846524 -1.53481
