29

Pt -0.396646 1e-06 5.9e-05
I -2.288202 1.829585 -5.4e-05
I -2.288202 -1.829582 -5.9e-05
N 1.200508 1.316147 9.8e-05
C 1.116483 2.667586 0.000152
H 0.089182 3.071413 0.000234
C 2.243543 3.485251 7.7e-05
H 2.105695 4.576808 0.000114
C 3.536901 2.919231 -5.6e-05
C 3.607596 1.518675 -9.9e-05
H 4.589775 1.026413 -0.000216
C 2.440927 0.733873 -7e-06
C 2.440918 -0.733878 -3e-06
C 3.607595 -1.518682 -7.4e-05
H 4.58977 -1.026411 -0.000174
C 3.536895 -2.91923 -9e-06
C 2.243528 -3.485251 0.000161
H 2.105695 -4.57681 0.000265
C 1.116473 -2.667592 0.000206
H 0.089165 -3.0714 0.000302
N 1.200508 -1.316142 0.000105
C 4.768697 3.780151 -9e-05
H 5.69572 3.176299 -0.000348
H 4.787789 4.442329 0.890179
H 4.787513 4.442718 -0.89007
C 4.768677 -3.780168 -0.000186
H 5.695713 -3.176339 0.000308
H 4.787797 -4.442058 -0.890671
H 4.787427 -4.443026 0.889577
