55

C 0.039986 3.090543 -0.113131
H 1.12068 2.948581 0.010648
C -0.51516 4.370767 -0.123256
H 0.137264 5.247534 -0.014047
C -1.907599 4.500827 -0.265448
H -2.384281 5.491882 -0.278568
C -2.68533 3.349533 -0.378141
H -3.779273 3.401547 -0.476717
C -2.040014 2.095185 -0.350904
C -4.245232 -1.466405 -0.514054
H -4.79257 -1.036276 0.354708
H -4.58417 -2.511603 -0.623953
H -4.564869 -0.911296 -1.424066
C -2.761644 -1.401843 -0.3184
C -1.850566 -2.609672 -0.255558
C -1.640742 -3.085023 -1.714955
H -2.601276 -3.33046 -2.21467
H -1.011875 -3.998765 -1.722755
H -1.119615 -2.301452 -2.299706
C -2.467092 -3.748179 0.579615
H -2.714028 -3.404495 1.604049
H -1.732385 -4.57349 0.668345
H -3.382897 -4.172667 0.116175
C -0.490983 -2.183636 0.374219
H 0.276596 -2.892628 0.013687
H -0.552259 -2.264781 1.479931
C 1.912296 0.555582 0.224823
H 1.863164 1.272668 1.067222
C 2.635802 1.041188 -1.012602
H 2.086315 1.873427 -1.501192
H 2.658119 0.231439 -1.768106
C 4.066093 1.508999 -0.686639
H 4.018771 2.466926 -0.12158
H 4.584579 1.746643 -1.641971
C 4.916338 0.515063 0.120116
H 5.92858 0.958553 0.229702
H 4.515927 0.436886 1.154243
C 5.047004 -0.903613 -0.476767
H 4.916217 -0.860941 -1.582073
H 6.089972 -1.253184 -0.322918
C 4.125759 -1.990487 0.105558
H 4.270627 -2.029064 1.208962
H 4.48022 -2.972964 -0.275199
C 2.616723 -1.894214 -0.196211
H 2.455338 -1.754354 -1.28519
H 2.166718 -2.876621 0.051542
C 1.901816 -0.817686 0.594205
H 1.800867 -1.026712 1.674634
Ir -0.104208 -0.152192 0.021775
N -0.691752 1.961961 -0.241453
N -2.765443 0.927976 -0.447177
N -2.122889 -0.261641 -0.296456
Cl -0.55488 0.317408 2.440273
H 0.207104 -0.492544 -1.509246
H -3.784769 0.951369 -0.392418
