73

Zr 0.154248 -0.224302 0.056563
S 2.087863 4.402979 -1.452429
S -5.263922 0.496766 -1.237277
O -0.723146 1.69657 -0.863524
O 1.28812 1.814659 0.000125
O -1.65912 -0.907252 -0.622803
O -3.594041 -2.025006 -0.73169
C -0.260059 0.959901 2.273118
C 0.90719 0.144068 2.46598
C 0.487713 -1.228775 2.422842
C -0.921044 -1.259088 2.152098
C -1.384522 0.095818 2.073323
C -0.334854 2.45235 2.443564
C -0.700288 2.84661 3.883708
C 2.281136 0.653601 2.791373
C 1.270156 -2.405485 2.924701
C -1.779566 -2.489009 2.118167
C -2.807954 0.536284 1.904752
C 2.15066 -1.738114 -0.535285
C 0.963426 -2.306869 -1.127364
C 0.538992 -1.430852 -2.178842
C 1.404581 -0.291721 -2.189236
C 2.41471 -0.492393 -1.185145
C 3.154274 -2.482753 0.303125
C 4.222312 -3.1507 -0.57874
C 0.343609 -3.637873 -0.811319
C -0.563541 -1.698527 -3.154986
C 1.353872 0.835531 -3.177175
C 3.621663 0.370992 -0.970462
C 0.328379 2.376066 -0.61549
C 0.40513 3.836007 -1.011523
C -2.922723 -1.014198 -0.94099
C -3.507162 0.209627 -1.656779
H 2.678139 3.856129 -0.352722
H -5.519199 -0.841469 -1.130781
H 0.635858 2.910386 2.169289
H -1.091298 2.870434 1.745665
H 0.052422 2.465453 4.603201
H -1.682774 2.427434 4.179508
H -0.752811 3.948493 3.997092
H 3.05681 -0.117695 2.618738
H 2.540776 1.533413 2.170425
H 2.357381 0.961444 3.856834
H 2.35861 -2.220775 2.934155
H 1.08 -3.330519 2.347306
H 0.964929 -2.618081 3.972537
H -2.300005 -2.625659 3.091015
H -2.547617 -2.443961 1.321425
H -1.176904 -3.399986 1.940617
H -2.902074 1.406335 1.225506
H -3.450104 -0.267962 1.501983
H -3.241509 0.838434 2.882357
H 2.652548 -3.261937 0.904647
H 3.646192 -1.798909 1.026006
H 3.756422 -3.860726 -1.291731
H 4.95437 -3.713707 0.03538
H 4.782194 -2.402783 -1.174804
H -0.762417 -3.569758 -0.780497
H 0.611457 -4.399217 -1.575327
H 0.682614 -4.02546 0.168577
H -1.094755 -0.771102 -3.444445
H -1.309152 -2.408284 -2.75173
H -0.147862 -2.141551 -4.086135
H 0.313406 1.082145 -3.465402
H 1.898347 0.565007 -4.107776
H 1.827769 1.758021 -2.78574
H 4.46036 0.037005 -1.619456
H 3.978839 0.329296 0.077013
H 3.413787 1.430105 -1.209762
H -0.243884 4.009436 -1.890268
H -0.004615 4.440273 -0.17388
H -2.925978 1.114733 -1.403644
H -3.394278 0.036967 -2.749753
