81

Ru -2.6e-05 -0.396169 -0.000807
P -2.34075 -0.431207 -0.081818
P 2.34093 -0.431355 0.081802
Si -1.516066 2.469146 0.265229
Si 1.51613 2.468892 -0.265627
F -0.000347 -2.3718 -0.004374
N 1.1e-05 1.535103 6.4e-05
C -1.569978 3.07562 2.05797
H -0.873363 3.922762 2.211204
H -1.287004 2.267123 2.758895
H -2.590757 3.423879 2.319561
C -1.666968 3.969533 -0.888012
H -0.886309 4.736279 -0.71498
H -2.651923 4.454259 -0.721968
H -1.618032 3.659313 -1.951618
C -2.965372 1.317934 -0.14244
H -3.85014 1.480036 0.505725
H -3.281653 1.541498 -1.181671
C -3.029452 -1.204153 -1.700315
C -4.504922 -0.891001 -1.986554
H -4.77194 -1.278036 -2.993829
H -4.713183 0.197906 -1.990412
H -5.188588 -1.36656 -1.259928
C -2.79316 -2.723992 -1.669466
H -2.926788 -3.139612 -2.691401
H -3.518846 -3.23897 -1.009825
H -1.768933 -2.963365 -1.319502
C -2.15494 -0.593034 -2.815088
H -2.462302 -1.012763 -3.797176
H -1.08189 -0.816919 -2.643054
H -2.256857 0.510302 -2.875992
C -3.191058 -1.175415 1.467799
C -2.62927 -2.585413 1.724627
H -2.962545 -2.932432 2.726227
H -1.523117 -2.588092 1.690054
H -2.984862 -3.321452 0.980587
C -2.748972 -0.271685 2.634466
H -3.087291 -0.719166 3.593298
H -3.181519 0.745761 2.572365
H -1.642673 -0.181968 2.661411
C -4.72293 -1.212877 1.39624
H -5.132758 -1.492085 2.391141
H -5.084796 -1.967646 0.671877
H -5.161733 -0.231308 1.123169
C 1.570007 3.074039 -2.058813
H 1.286709 2.26498 -2.75897
H 2.590808 3.421865 -2.320886
H 0.873526 3.921182 -2.212656
C 1.667066 3.969982 0.886685
H 0.886403 4.736623 0.713211
H 2.652017 4.454596 0.720288
H 1.618188 3.660421 1.950484
C 2.96546 1.317866 0.142409
H 3.849867 1.479829 -0.506275
H 3.282315 1.541692 1.181406
C 3.027196 -1.203604 1.701613
C 2.788315 -2.723087 1.67195
H 2.918792 -3.137846 2.694634
H 3.514607 -3.240017 1.014545
H 1.76457 -2.961232 1.319711
C 4.502942 -0.892584 1.988595
H 4.768515 -1.278334 2.996745
H 4.713117 0.19597 1.990659
H 5.186319 -1.370644 1.26332
C 2.152786 -0.590028 2.815117
H 2.458393 -1.009697 3.797774
H 1.079469 -0.812001 2.642106
H 2.256731 0.513147 2.875416
C 3.193436 -1.1759 -1.466481
C 4.725447 -1.208492 -1.395225
H 5.135893 -1.487551 -2.389911
H 5.089818 -1.961335 -0.670134
H 5.161372 -0.225315 -1.123334
C 2.748342 -0.275149 -2.634352
H 3.088183 -0.722718 -3.592605
H 3.177604 0.743767 -2.573483
H 1.641761 -0.188914 -2.661385
C 2.636104 -2.588123 -1.720892
H 2.967414 -2.934385 -2.723402
H 1.530085 -2.595289 -1.682392
H 2.997459 -3.322334 -0.977783
