40

Pd -0.579262 0.680276 -0.044997
S -2.768612 0.108577 -0.314664
S -1.12172 2.90283 -0.135374
O 1.385979 1.137204 0.263517
O 5.885871 0.824035 0.002308
O 3.582382 -3.085458 -0.502371
O -1.81169 3.469432 -1.341767
N 3.589662 0.864057 0.148346
H 3.619099 1.882156 0.230181
N -0.233349 -1.304192 0.075221
N -1.300864 -2.146011 0.165179
N -3.589517 -2.439105 0.119337
N 4.669724 -1.135614 -0.1599
H 5.523111 -1.669768 -0.343121
C 2.332269 0.274688 0.149962
C 4.819931 0.226533 0.000822
C 3.475548 -1.891909 -0.221896
C 2.228112 -1.142809 0.05139
C 0.976456 -1.872824 0.167603
C -2.493194 -1.617664 0.025377
C -3.369423 -3.872934 0.219369
H -3.055367 -4.319414 -0.751871
H -4.307865 -4.358008 0.549758
H -2.56677 -4.078365 0.952018
C -4.911342 -1.974406 -0.249749
H -5.032223 -0.911715 0.039164
H -5.673562 -2.570584 0.290031
H -5.110374 -2.057393 -1.343877
C -2.130014 3.278698 1.332959
H -2.359822 4.361487 1.316015
H -1.580484 2.976661 2.244523
H -3.047181 2.67047 1.222361
C 0.34667 3.920987 0.211448
H 1.027022 3.771335 -0.645554
H 0.82975 3.578628 1.144218
H 0.000658 4.970266 0.263885
C 0.97574 -3.355294 0.444598
H 0.257565 -3.555998 1.263006
H 1.981758 -3.730709 0.674486
H 0.591626 -3.908294 -0.436824
