67

Ru -1.1e-05 6.6e-05 5.8e-05
Cl 0.000299 0.000424 -2.453959
Cl -0.000148 -0.000302 2.454036
P 1.8649 1.373303 0.068365
P 1.373354 -1.864621 -0.068204
P -1.864867 -1.373243 0.068026
P -1.373685 1.864614 -0.068101
O 1.929909 2.841331 0.824775
O 2.646563 1.84712 -1.303436
O 3.11455 0.55637 0.765191
O 2.841756 -1.928801 -0.823984
O 1.846895 -2.646655 1.303503
O 0.557118 -3.114162 -0.765938
O -2.64679 -1.846775 -1.303764
O -1.929392 -2.841519 0.823952
O -3.114419 -0.556815 0.765537
O -2.841891 1.928909 -0.824284
O -1.84763 2.6463 1.303718
O -0.557411 3.114414 -0.765345
C 1.369091 3.087996 2.120273
H 1.7464 4.081245 2.43421
H 1.682942 2.317239 2.852434
H 0.262544 3.102825 2.081058
C 2.105139 2.80461 -2.22
H 2.853411 2.913651 -3.028876
H 1.957669 3.781242 -1.715701
H 1.14528 2.445033 -2.638966
C 4.429653 1.112644 0.822195
H 4.970596 0.578132 1.62723
H 4.397665 2.196841 1.054982
H 4.958793 0.964422 -0.141234
C 3.088554 -1.367328 -2.119153
H 4.082408 -1.743402 -2.432656
H 3.102086 -0.260769 -2.079603
H 2.318593 -1.681788 -2.851881
C 2.803411 -2.104522 2.220708
H 2.911466 -2.852126 3.030328
H 2.443366 -1.144328 2.63852
H 3.780581 -1.957511 1.717305
C 1.114042 -4.428977 -0.823712
H 0.584251 -4.96784 -1.633278
H 0.96035 -4.960851 0.137358
H 2.199503 -4.396107 -1.050309
C -2.104635 -2.803032 -2.221211
H -2.852781 -2.911789 -3.03024
H -1.956537 -3.780032 -1.717819
H -1.144973 -2.442348 -2.639716
C -1.368012 -3.088666 2.119108
H -1.745559 -4.081811 2.433091
H -1.681091 -2.317904 2.851586
H -0.261492 -3.103963 2.079251
C -4.429251 -1.113665 0.823308
H -4.969164 -0.581318 1.630476
H -4.396556 -2.198408 1.053396
H -4.959898 -0.963205 -0.138952
C -3.088468 1.367692 -2.119651
H -4.081591 1.745088 -2.433872
H -3.10353 0.261156 -2.079991
H -2.317508 1.681069 -2.851781
C -2.804365 2.103636 2.220438
H -2.913277 2.851229 3.02995
H -2.443959 1.143656 2.638474
H -3.781171 1.956067 1.716522
C -1.114383 4.429222 -0.822777
H -0.580762 4.969921 -1.628569
H -0.965653 4.959003 0.140219
H -2.198739 4.396536 -1.054695
