61

Rh 0.83686 -0.234095 -0.296343
S -1.448616 2.00137 -1.29907
S -0.595556 -1.066499 -2.048271
C -2.253336 0.744597 -0.363744
C -1.970715 -0.958281 -0.93294
O 0.50376 4.07277 -0.093625
B -1.174384 -0.35329 0.442087
B -2.331967 0.734193 1.310517
H -1.922882 1.695659 1.911652
B -3.789559 0.880388 0.268258
H -4.354597 1.936359 0.12925
B -3.467889 -0.135029 -1.193749
H -3.754487 0.215042 -2.309168
B -4.525395 -0.728456 0.112046
H -5.717503 -0.843524 -0.048387
B -3.379868 -1.84562 -0.670184
H -3.661109 -2.712949 -1.459523
B -1.965571 -1.978807 0.395705
H -1.265521 -2.951224 0.307605
B -2.184026 -0.952519 1.821129
H -1.710664 -1.230018 2.89937
B -3.806493 -0.20359 1.67994
H -4.481801 0.070713 2.64469
B -3.566214 -1.867323 1.116358
H -4.055923 -2.825367 1.668355
C 0.242552 1.781053 -0.640127
C 1.214294 1.392408 -1.614427
H 2.252173 1.744948 -1.49879
H 0.891766 1.172657 -2.643835
C 0.573395 2.769605 0.453551
H -0.146149 2.650651 1.296149
H 1.594269 2.564075 0.852793
C 0.4516 5.081382 0.886988
H 0.387516 6.055057 0.363776
H 1.36208 5.088675 1.536569
H -0.439868 4.973579 1.55131
C 1.948907 -0.538411 1.625478
C 2.885401 -0.047694 0.6401
C 2.979257 -1.022951 -0.43401
C 2.117313 -2.122035 -0.098517
C 1.495814 -1.841366 1.179229
C 1.630976 0.075115 2.953684
H 2.293529 -0.3321 3.747977
H 0.584818 -0.13451 3.24741
H 1.760455 1.173914 2.940029
C 3.774481 1.147969 0.779328
H 4.816126 0.813025 0.972145
H 3.473264 1.794402 1.624017
H 3.806856 1.771907 -0.13637
C 3.90321 -0.939305 -1.609316
H 4.900143 -1.363873 -1.360254
H 4.064499 0.106502 -1.9343
H 3.510311 -1.503586 -2.476488
C 1.923939 -3.377475 -0.887005
H 2.525955 -4.205697 -0.456126
H 2.230382 -3.247033 -1.941642
H 0.861372 -3.687764 -0.886607
C 0.796623 -2.844258 2.038297
H 1.526965 -3.25289 2.770371
H 0.401025 -3.690792 1.451227
H -0.04044 -2.403528 2.608736
