46

Zr 0.697793 -0.08058 -0.086414
C 1.733341 0.111409 2.219423
H 1.956816 -0.806572 2.773732
C 2.617289 0.793547 1.340653
H 3.640366 0.49321 1.086963
C 1.948281 1.94834 0.841007
H 2.377127 2.69188 0.160512
C 0.650163 1.986251 1.432217
H -0.096937 2.772045 1.289105
C 0.50274 0.837799 2.265067
H -0.371362 0.593005 2.877257
C 1.361773 -2.482013 0.529704
H 1.330619 -2.794977 1.579806
C 2.483302 -1.918339 -0.153124
H 3.466555 -1.714731 0.284979
C 2.10903 -1.682283 -1.503757
H 2.749767 -1.264423 -2.289059
C 0.760221 -2.128155 -1.661889
H 0.179297 -2.104837 -2.592371
C 0.303029 -2.622323 -0.409065
H -0.684111 -3.045952 -0.20332
C 0.71871 1.048743 -2.109686
H 1.490171 1.602748 -2.667397
H 0.369495 0.155887 -2.664102
C -0.314073 1.834821 -1.461624
C -1.343775 1.276927 -0.684297
H -1.908217 2.013667 -0.086508
C -1.624103 -0.114282 -0.389167
H -1.44759 -0.788275 -1.257974
C -0.153262 3.338583 -1.469113
H -0.365099 3.73173 -2.486362
H 0.884335 3.646762 -1.225501
H -0.841758 3.843512 -0.762825
C -2.952787 -0.465539 0.30748
C -3.116147 0.282798 1.643273
H -3.05939 1.383385 1.522152
H -2.330918 -0.023061 2.362056
H -4.102503 0.053535 2.096735
C -3.015447 -1.974994 0.598046
H -2.203875 -2.278403 1.289602
H -2.919108 -2.569617 -0.334379
H -3.984474 -2.24588 1.065864
C -4.127601 -0.093087 -0.626711
H -5.106293 -0.350728 -0.16909
H -4.049533 -0.632912 -1.592985
H -4.12918 0.992983 -0.850946
