59

C -2.051142 1.768475 -0.160724
H -1.369284 2.629922 -0.209986
C -3.439595 1.94588 -0.128301
H -3.860762 2.96107 -0.153331
C -4.257186 0.802047 -0.064206
C -5.676226 0.517666 -0.014982
C -6.836577 1.317097 -0.011286
H -6.756888 2.413968 -0.052043
C -8.087262 0.694474 0.044672
H -9.002572 1.304351 0.048223
C -8.192077 -0.716688 0.096874
H -9.189366 -1.180167 0.140191
C -7.059668 -1.539041 0.094767
H -7.148083 -2.634192 0.135352
C -5.800835 -0.915543 0.038693
C -3.604569 -0.471012 -0.037307
C -2.207831 -0.578769 -0.072834
C -1.529957 -1.915513 -0.050917
C 0.573919 -3.077027 -0.064912
H 0.882591 -3.34896 -1.101083
H -0.102222 -3.879002 0.296819
C 1.829483 -2.990846 0.811676
H 2.317622 -3.987451 0.820163
H 1.520365 -2.78689 1.861895
C 2.799624 -1.957718 0.318038
C 4.232851 -2.078632 0.204987
C 5.164547 -3.095107 0.517264
H 4.824523 -4.044362 0.959762
C 6.52227 -2.881889 0.255779
H 7.252819 -3.669664 0.495299
C 6.977131 -1.667768 -0.315199
H 8.051214 -1.529607 -0.511833
C 6.080885 -0.638711 -0.63318
H 6.434038 0.304863 -1.078123
C 4.719165 -0.852764 -0.363229
C 2.451808 -0.695356 -0.164883
C 1.358603 1.79776 -0.109109
C 2.70955 4.005014 0.264464
C 3.8036 3.567608 1.259343
H 3.353635 3.23843 2.215898
H 4.48646 4.415933 1.460947
H 4.3922 2.723718 0.84931
C 3.331258 4.478979 -1.063406
H 3.970306 3.688932 -1.504889
H 3.960115 5.372094 -0.881639
H 2.544438 4.744869 -1.795846
C 1.81535 5.102368 0.870218
H 1.018111 5.39798 0.160323
H 2.428192 5.995452 1.100494
H 1.342316 4.74963 1.807203
N -1.461679 0.54573 -0.133683
N -4.535397 -1.474435 0.023966
H -4.208234 -2.451807 0.047008
N -0.178982 -1.833751 -0.09216
N 3.620703 -0.036465 -0.552061
H 3.637391 0.84371 -1.061588
N 1.891082 2.851846 -0.008496
O -2.227659 -2.956538 1.7e-05
Pd 0.607164 0.053459 -0.170553
