81

Zn -9e-06 -0.636542 -2.8e-05
S 2.250465 -0.503868 1.142515
S 1.358076 0.999193 -1.299827
N 3.732037 1.360499 -0.096518
N 0.693242 -2.40687 -1.137113
C 2.555773 0.67498 -0.085007
C 4.031647 2.357338 -1.124704
C 3.522156 3.757482 -0.760439
C 3.786042 4.808386 -1.845699
C 5.265972 5.10886 -2.100127
C 4.751337 1.139969 0.929067
C 5.726759 0.015576 0.56068
C 6.784498 -0.261351 1.636884
C 6.214532 -0.793895 2.95514
C 1.435017 -2.303542 -2.248774
C 1.939056 -3.426641 -2.91896
C 1.654325 -4.697382 -2.398701
C 0.883079 -4.799647 -1.235069
C 0.41057 -3.622566 -0.62054
H 5.130813 2.356296 -1.278333
H 3.557909 2.026543 -2.072115
H 2.430555 3.672575 -0.579472
H 3.9852 4.08032 0.199095
H 3.301559 4.478177 -2.791534
H 3.267425 5.74775 -1.557891
H 5.814293 4.223702 -2.483725
H 5.393033 5.917359 -2.848202
H 5.775615 5.434417 -1.168463
H 5.297365 2.095831 1.080754
H 4.224936 0.896823 1.873492
H 5.126357 -0.90184 0.378466
H 6.226037 0.270445 -0.399567
H 7.514266 -0.99457 1.230928
H 7.370212 0.666406 1.828812
H 5.59669 -1.699759 2.784994
H 7.022398 -1.059744 3.666525
H 5.563797 -0.051103 3.459422
H 1.632384 -1.267879 -2.580703
H 2.543849 -3.301332 -3.828476
H 2.032941 -5.605195 -2.892012
H 0.660058 -5.786149 -0.807081
S -2.250487 -0.503879 -1.142551
C -2.555811 0.674939 0.085001
S -1.358081 0.99921 1.299768
N -3.732049 1.360501 0.096523
C -4.031572 2.357355 1.124716
C -3.521995 3.757465 0.760442
C -3.785788 4.808388 1.845707
C -5.265692 5.108965 2.100162
H -5.814068 4.223847 2.483772
H -5.392682 5.917475 2.848238
H -5.775329 5.434557 1.168507
H -3.301311 4.478145 2.791534
H -3.26711 5.747715 1.55789
H -2.430403 3.672485 0.579452
H -3.985035 4.080335 -0.199082
H -5.130734 2.356381 1.278376
H -3.557825 2.026525 2.07211
C -4.751393 1.14003 -0.929035
C -5.726879 0.015704 -0.560615
C -6.784664 -0.261161 -1.63679
C -6.214768 -0.793754 -2.955056
H -5.596981 -1.699657 -2.784919
H -7.022669 -1.059554 -3.666419
H -5.563996 -0.051008 -3.45936
H -7.51447 -0.99433 -1.230809
H -7.370322 0.666632 -1.82871
H -5.126532 -0.90175 -0.378411
H -6.226116 0.270612 0.399643
H -5.297368 2.095926 -1.080707
H -4.225039 0.896851 -1.873478
C -0.410582 -3.622559 0.620531
N -0.693258 -2.406856 1.137086
C -1.435036 -2.303514 2.248744
C -1.939074 -3.426605 2.918946
C -1.654337 -4.697353 2.398705
C -0.883089 -4.799632 1.235076
H -0.660065 -5.786139 0.807102
H -2.032952 -5.60516 2.892028
H -2.543869 -3.301285 3.828458
H -1.632409 -1.267847 2.580657
