37

Hg -1.135143 0.003429 -2e-06
I -1.673414 2.667005 0.001598
I -1.68941 -2.656826 -0.002063
N 0.81915 -0.000918 -1.667192
C 1.371234 -1.162838 -2.044778
H 0.856882 -2.079608 -1.701685
C 2.536424 -1.230556 -2.832708
C 3.115282 -0.007001 -3.217465
H 4.030927 -0.009428 -3.833018
C 2.544543 1.21961 -2.830284
C 1.378859 1.158064 -2.04259
H 0.870441 2.077541 -1.697915
C 3.124601 -2.553921 -3.244033
H 3.094158 -2.679418 -4.346425
H 2.572002 -3.399998 -2.792696
H 4.188121 -2.635006 -2.938816
C 3.141844 2.539831 -3.238555
H 4.204149 2.615246 -2.92761
H 2.591462 3.388829 -2.790008
H 3.118028 2.665485 -4.341069
N 0.818103 -0.003804 1.668359
C 1.369996 -1.166235 2.044662
H 0.85519 -2.082526 1.700969
C 2.535668 -1.235014 2.831774
C 3.11516 -0.011974 3.217244
H 4.031308 -0.015235 3.832042
C 2.544503 1.215154 2.831612
C 1.378399 1.154669 2.044441
H 0.870232 2.074614 1.700646
C 3.123781 -2.558922 3.241439
H 4.187209 -2.639802 2.935854
H 2.570944 -3.404417 2.789304
H 3.093613 -2.685657 4.343699
C 3.141831 2.534852 3.241525
H 3.107059 2.664086 4.343383
H 2.5984 3.384103 2.785039
H 4.207438 2.606088 2.94127
