52

Mo -0.077486 -0.476726 -4e-06
Cl 0.202564 -0.592992 -2.349266
O 1.225024 1.156043 3.1e-05
N -0.096383 -2.578037 -1.1e-05
C -1.300406 -3.261599 -2.2e-05
Cl 0.202709 -0.593101 2.349242
O -1.241388 1.120739 3e-05
N 2.026776 -1.188842 -8.6e-05
C -1.331405 -4.692633 0.000196
H -2.305973 -5.197857 0.000408
N 3.016649 -0.285393 -0.000127
C -0.147488 -5.400789 0.000203
H -0.15189 -6.50027 0.000343
N -2.070566 -1.10606 -6.4e-05
C 1.08584 -4.69387 6.8e-05
H 2.043837 -5.228431 4.7e-05
N -3.079843 -0.198223 -9e-05
C 1.080094 -3.300542 1.7e-05
C 2.281894 -2.480169 -9e-06
C 3.659661 -3.049553 -4e-06
H 4.398885 -2.230435 0.001169
H 3.81918 -3.686721 -0.894814
H 3.818368 -3.688746 0.893484
C 2.501916 0.946495 -5.5e-05
C 3.409035 2.111768 3.2e-05
C 4.810869 1.940228 -0.000838
H 5.218964 0.920082 -0.001592
C 5.651884 3.058778 -0.000761
H 6.743929 2.922732 -0.001473
C 5.104338 4.353575 0.000216
H 5.76864 5.231328 0.000286
C 3.709982 4.527991 0.001099
H 3.281756 5.541702 0.001877
C 2.863225 3.413308 0.000994
H 1.769513 3.522995 0.001658
C -2.429191 -2.421546 -0.000163
C -3.845497 -2.895278 -2.7e-05
H -4.5286 -2.029173 -0.005206
H -4.061029 -3.512721 0.897396
H -4.058077 -3.521732 -0.891805
C -2.561986 1.00815 -3.2e-05
C -3.373185 2.23121 -6.2e-05
C -4.784616 2.159776 0.000289
H -5.267184 1.172263 0.000623
C -5.542433 3.335193 0.000239
H -6.641339 3.277061 0.000522
C -4.904117 4.588557 -0.000162
H -5.504312 5.51117 -0.000201
C -3.501467 4.66267 -0.000506
H -3.001399 5.642862 -0.000823
C -2.73492 3.490857 -0.000452
H -1.636189 3.526106 -0.000723
