79

Pt -0.113567 -0.12901 -0.528816
P -1.559663 1.121353 0.789738
P 1.563882 0.740025 0.828232
C 1.312314 -1.086666 -1.546291
C -3.215221 0.508718 1.240972
C -1.844864 2.811199 0.126035
C 2.328138 -1.563402 -2.065692
C 2.913975 1.651422 0.001757
C -0.641293 1.456993 2.381583
H -1.190385 2.200649 2.994784
H -0.605124 0.501091 2.945268
C 2.370791 -0.506364 1.903934
C 4.067452 0.949803 -0.407664
H 4.208581 -0.100545 -0.117776
C -2.732712 3.703107 0.762876
H -3.318249 3.367893 1.633715
C 5.033743 1.585825 -1.200518
H 5.90761 1.006708 -1.533722
C -5.47106 -0.033846 0.494375
H -6.228412 -0.060744 -0.302678
C 1.819915 -1.801227 1.97322
H 0.951376 -2.045069 1.340121
C -3.498636 -0.060328 2.498551
H -2.733401 -0.086343 3.288394
C -4.209898 0.517431 0.237719
H -3.984362 0.943976 -0.750518
C -5.749378 -0.600188 1.748532
H -6.734853 -1.050177 1.938393
N 4.611763 -2.226222 -1.551657
C -2.659384 -1.312878 -2.113917
C -2.149856 5.430876 -0.847644
H -2.271895 6.456239 -1.228763
C -1.629389 -0.878123 -1.586595
C 2.736989 2.992776 -0.398195
H 1.825922 3.546374 -0.123813
C -2.881935 5.009215 0.276057
H -3.577896 5.702291 0.772744
C -4.766612 -0.607193 2.749954
H -4.98241 -1.049874 3.734188
C 0.773514 1.932594 2.03858
H 1.412565 2.02124 2.939876
H 0.736379 2.928541 1.551772
C -1.121555 3.232469 -1.007833
H -0.450877 2.515737 -1.510987
C 3.578669 -2.096217 -2.593024
H 3.432903 -3.087391 -3.079566
H 4.025306 -1.426003 -3.356179
C 2.394081 -2.76303 2.819156
H 1.961862 -3.773941 2.868685
C 3.715461 3.62836 -1.176053
H 3.572923 4.677174 -1.477847
C 4.862415 2.925894 -1.580864
H 5.621015 3.423768 -2.203801
N -4.748245 -2.472596 -1.637935
C -1.273425 4.542552 -1.489836
H -0.709148 4.865091 -2.377922
N 5.857355 -1.761739 -1.768689
C -4.343218 -3.153305 -0.527532
H -3.283616 -3.200514 -0.254623
C -3.897008 -1.850265 -2.663524
H -4.524276 -1.06086 -3.128824
H -3.696264 -2.602272 -3.460841
C 4.077386 -1.150403 3.516513
H 4.96764 -0.898338 4.112376
C 5.691799 -2.658626 0.32768
H 5.941227 -2.982521 1.343266
C 6.523398 -2.024384 -0.630648
H 7.579577 -1.738362 -0.542698
C 3.522947 -2.439859 3.587933
H 3.978048 -3.197737 4.243775
C 4.457433 -2.774201 -0.3109
H 3.490436 -3.166143 0.020045
C 3.50235 -0.183005 2.681003
H 3.947914 0.82195 2.615582
N -6.084058 -2.487941 -1.809386
C -6.551177 -3.201354 -0.770488
H -7.632501 -3.360681 -0.665447
C -5.50125 -3.64697 0.072526
H -5.569729 -4.23403 0.994325
