26

C -1.497233 2.407154 0.082449
H -1.222841 3.427758 0.370334
Zn 0.551243 -1.340945 0.0881
N -0.882396 0.156296 -0.507176
N 1.673531 0.507488 0.018321
C -0.53371 1.3974 -0.180879
O -2.567735 -1.363196 -0.92694
C 0.934024 1.632315 -0.073078
C -2.825132 2.025723 0.036685
H -3.64581 2.722489 0.265658
C 3.688763 1.796974 0.051893
H 4.787013 1.820834 0.094508
C 2.936785 2.978568 -0.021419
H 3.436667 3.958516 -0.038514
Cl 1.906917 -2.60831 -1.075559
Cl -0.445116 -1.475946 2.067224
C -4.571412 0.318925 -0.315365
H -5.232942 1.164375 -0.055416
H -4.707544 -0.513185 0.40284
H -4.817898 -0.071329 -1.321645
C 1.537817 2.901714 -0.09016
H 0.931135 3.813285 -0.181987
N -3.181882 0.760958 -0.285898
C -2.205454 -0.247996 -0.601229
C 3.008742 0.56889 0.063533
H 3.522277 -0.407697 0.08713
