75

C 0.761736 1.825425 0.09768
C 1.225273 3.193161 0.320137
C 2.469745 3.814169 0.42523
H 3.397135 3.230503 0.352198
C 2.502051 5.22306 0.626607
H 3.480064 5.720089 0.708936
C 1.341885 5.995031 0.726446
H 1.418272 7.081755 0.884507
C 0.052671 5.386541 0.625702
C -1.22513 6.022886 0.696334
H -1.28156 7.111058 0.852747
C -2.399096 5.276374 0.569127
H -3.367767 5.794553 0.62808
C -2.392427 3.866806 0.369106
H -3.330597 3.303712 0.274022
C -1.159568 3.219461 0.29336
C -0.720944 1.841501 0.083373
C 0.039945 3.986506 0.424594
C 3.447898 -0.329599 -0.135284
C 4.861256 -0.230256 -0.553581
C 5.857342 -1.060608 0.015388
H 5.583164 -1.79198 0.789338
C 7.196145 -0.933028 -0.376044
H 7.962252 -1.576134 0.081882
C 7.560968 0.01872 -1.341508
H 8.612589 0.1143 -1.650971
C 6.580682 0.852912 -1.90977
H 6.864579 1.597061 -2.668871
C 5.244943 0.736259 -1.51663
H 4.468671 1.381349 -1.952215
C 2.937404 -1.598791 0.439806
C 3.284967 -2.834538 -0.155273
H 3.913413 -2.838985 -1.057647
C 2.830857 -4.040989 0.392164
H 3.114299 -4.994388 -0.079641
C 2.040528 -4.036056 1.554341
H 1.710639 -4.98517 2.00366
C 1.693295 -2.817285 2.155802
H 1.101964 -2.810597 3.081632
C 2.120199 -1.603853 1.596696
H 1.887334 -0.655005 2.101176
C -3.446018 -0.256202 -0.122054
C -2.968327 -1.482832 0.562622
C -3.325912 -2.758917 0.067272
H -3.945374 -2.830133 -0.83857
C -2.888669 -3.921322 0.714881
H -3.177573 -4.907352 0.319571
C -2.108052 -3.830437 1.879988
H -1.790457 -4.743651 2.405819
C -1.756681 -2.570018 2.386526
H -1.179552 -2.491723 3.319002
C -2.165669 -1.4027 1.726463
H -1.926153 -0.418677 2.153913
C -4.846749 -0.165158 -0.581628
C -5.871139 -0.934249 0.02197
H -5.629293 -1.609631 0.855317
C -7.197466 -0.81487 -0.412377
H -7.986035 -1.409416 0.072269
C -7.521307 0.067854 -1.454915
H -8.563186 0.157215 -1.797428
C -6.512636 0.841722 -2.057851
H -6.764606 1.532376 -2.876441
C -5.189226 0.733166 -1.622916
H -4.391301 1.332683 -2.083841
C -0.115768 -3.72815 -1.271418
C -0.172402 -5.127525 -1.640497
H -1.096092 -5.340875 -2.215386
H -0.170266 -5.753134 -0.725504
H 0.705547 -5.401066 -2.259893
Cu 0.004082 -0.853456 -0.316548
N 1.381182 0.683491 -0.129363
N 2.717945 0.752925 -0.302118
N -1.359462 0.711361 -0.143787
N -2.689809 0.796699 -0.349215
N -0.069586 -2.600694 -0.963656
