62

Pd -0.000409 -0.35712 -0.151387
P 0.57086 1.797828 -0.03651
N -1.978717 0.319391 -0.197459
O -1.249271 -2.267517 -0.172478
C -0.782688 -3.62837 -0.177671
H -1.090959 -4.143797 0.754259
H 0.3185 -3.566337 -0.226343
H -1.176678 -4.163772 -1.064763
C -2.964871 -0.625217 -0.109717
C -2.598643 -2.011009 -0.100399
C -3.587051 -2.985879 -0.022968
H -3.326217 -4.051979 -0.019693
C -4.953748 -2.604871 0.055013
H -5.71555 -3.395528 0.116545
C -5.337147 -1.272327 0.056521
H -6.397631 -0.989403 0.120282
C -4.346776 -0.253327 -0.026406
C -4.633964 1.142341 -0.027542
H -5.68139 1.472841 0.043008
C -3.610065 2.072976 -0.118845
H -3.827786 3.150256 -0.12687
C -2.262972 1.628602 -0.213537
C -1.108424 2.579689 -0.392534
H -1.246797 3.504049 0.203674
H -1.086423 2.905093 -1.454649
C 0.992433 2.359269 1.730472
C 1.070831 3.889404 1.859637
H 0.163244 4.409248 1.493029
H 1.950767 4.308125 1.336649
H 1.178389 4.146339 2.933807
C -0.153351 1.813313 2.607519
H 0.05684 2.068216 3.666597
H -0.236731 0.709836 2.531255
H -1.138378 2.25374 2.353318
C 2.321441 1.725536 2.176936
H 3.1925 2.170019 1.6625
H 2.343288 0.633511 2.004662
H 2.452098 1.905466 3.26387
C 1.688521 2.485881 -1.406803
C 1.21629 1.795556 -2.702601
H 1.862908 2.127389 -3.540824
H 0.173316 2.058126 -2.97217
H 1.28143 0.692858 -2.630548
C 1.556009 4.011931 -1.560802
H 1.912679 4.563804 -0.672647
H 0.520411 4.337235 -1.782352
H 2.182983 4.330687 -2.419226
C 3.150504 2.105011 -1.115369
H 3.760949 2.320348 -2.016338
H 3.26572 1.030054 -0.876384
H 3.574114 2.699753 -0.284346
C 1.799299 -1.209921 -0.026325
C 2.569053 -1.520587 -1.168315
H 2.314918 -1.096245 -2.151795
C 3.666865 -2.3946 -1.086075
H 4.266621 -2.650121 -1.97178
C 4.004636 -2.94925 0.155046
C 3.266716 -2.655853 1.309323
H 3.56021 -3.108982 2.267457
C 2.171029 -1.781229 1.212663
H 1.59565 -1.562515 2.126752
F 5.05495 -3.778472 0.24036
