53

Hf 7.6e-05 -0.413766 -0.001492
F -0.013716 -1.698619 1.493342
F 0.014213 -1.688419 -1.504973
C -2.494412 -0.736435 -0.297485
C -2.341425 -0.195628 1.018672
C -1.833487 1.138903 0.897808
C -1.712801 1.44136 -0.508732
C -2.111656 0.277278 -1.242131
C -2.987428 -2.109227 -0.647496
H -4.050467 -2.084172 -0.971083
H -2.91813 -2.797231 0.216859
H -2.39556 -2.549062 -1.474366
C -2.688529 -0.886913 2.301764
H -3.782801 -0.839741 2.489849
H -2.180795 -0.420507 3.167343
H -2.390824 -1.952838 2.28387
C -1.698399 2.105908 2.040986
H -2.696002 2.345607 2.468164
H -1.241804 3.060521 1.724227
H -1.086576 1.701633 2.873881
C -1.519074 2.805829 -1.102676
H -2.497595 3.330172 -1.168493
H -1.106655 2.764091 -2.127928
H -0.853199 3.448606 -0.497256
C -2.179767 0.131877 -2.733689
H -3.228063 0.204314 -3.095852
H -1.78108 -0.850096 -3.056762
H -1.597523 0.917818 -3.25351
C 2.494379 -0.735861 0.300675
C 2.108236 0.277131 1.244823
C 1.711229 1.441552 0.510894
C 1.835114 1.139567 -0.895378
C 2.344209 -0.194647 -1.015549
C 2.987944 -2.10818 0.651632
H 4.04959 -2.081731 0.979623
H 2.923289 -2.795622 -0.21353
H 2.393212 -2.549533 1.47562
C 2.172187 0.130831 2.736524
H 3.219278 0.20433 3.101974
H 1.773911 -0.851916 3.057786
H 1.587397 0.915647 3.255204
C 1.517099 2.806081 1.1045
H 2.495547 3.330662 1.169536
H 1.105373 2.764513 2.129995
H 0.850752 3.44853 0.499249
C 1.700457 2.106383 -2.038751
H 2.698294 2.347831 -2.464414
H 1.241599 3.060196 -1.722786
H 1.090671 1.700874 -2.872563
C 2.694793 -0.884671 -2.298349
H 3.788512 -0.829722 -2.487666
H 2.18273 -0.422789 -3.163787
H 2.404959 -1.952707 -2.279321
