51

Rh -0.178245 0.322067 -0.029899
I -0.839541 -2.258247 -0.59128
C -1.514062 2.074484 0.098884
C -2.021668 1.137613 -0.87864
C -1.048075 1.057988 -1.973154
C 0.071102 1.87579 -1.619829
C -0.191963 2.496202 -0.320092
C -2.299278 2.645504 1.235183
H -2.970847 3.439552 0.844137
H -1.655757 3.116385 2.000625
H -2.947131 1.894157 1.724269
C -3.389432 0.537025 -0.896479
H -3.800914 0.419122 0.12322
H -3.386613 -0.458901 -1.377134
H -4.082975 1.19275 -1.465976
C -1.251312 0.317511 -3.252395
H -1.912969 0.905707 -3.923824
H -1.728459 -0.666283 -3.080285
H -0.298574 0.145268 -3.786586
C 1.296653 2.097134 -2.445031
H 1.499427 1.242228 -3.116962
H 2.193315 2.265758 -1.818473
H 1.167237 2.997825 -3.08187
C 0.646152 3.549856 0.331063
H 0.334261 4.560847 -0.009474
H 1.717083 3.441082 0.075145
H 0.551091 3.531787 1.43381
N 1.909192 -0.106643 -0.052904
C 2.758207 0.650841 0.684445
H 2.294214 1.37706 1.36623
C 4.147537 0.533574 0.590186
H 4.78833 1.170626 1.216173
C 4.691819 -0.400169 -0.305205
H 5.781361 -0.516428 -0.403283
C 3.814083 -1.178696 -1.070027
H 4.184913 -1.925144 -1.786731
C 2.432565 -1.007353 -0.918213
H 1.704376 -1.612518 -1.480453
P -0.289282 -0.311382 2.200005
C 0.857672 -1.658938 2.690342
H 0.710595 -1.907667 3.75998
H 1.904932 -1.338854 2.531433
H 0.655353 -2.547408 2.062696
C 0.111431 1.01439 3.418348
H -0.590565 1.861046 3.309562
H 1.143002 1.383364 3.260599
H 0.034189 0.617134 4.450425
C -1.939577 -0.897482 2.744908
H -2.224425 -1.768337 2.123803
H -2.689979 -0.096818 2.601468
H -1.914029 -1.183689 3.81524
