45

Ru -0.463159 0.12116 0.149585
Cl 0.023119 0.703358 2.400369
O -0.107153 2.284889 -0.154125
N 1.954502 -1.391341 -0.205097
N 2.499399 0.739001 -0.042908
C -1.194115 -1.799731 0.745473
C -2.414157 -1.010802 0.700908
H -3.02313 -0.94989 1.61563
C -2.760328 -0.225434 -0.4087
C -1.848081 -0.24166 -1.537865
H -2.057 0.422486 -2.39156
C -0.745616 -1.139298 -1.64693
C -0.377838 -1.882604 -0.450693
C -0.848751 -2.545659 2.005845
H -1.13254 -3.614852 1.909889
H -1.391044 -2.116977 2.867426
H 0.228143 -2.484272 2.246778
C -4.006784 0.611703 -0.439353
H -3.872567 1.529611 -1.043695
H -4.332724 0.896814 0.57876
H -4.83369 0.037891 -0.909276
C 0.052251 -1.218535 -2.920303
H 1.14359 -1.158048 -2.747605
H -0.227822 -0.403051 -3.612905
H -0.151626 -2.1807 -3.435921
C 1.022445 -2.49867 -0.393052
H 1.109418 -3.232363 0.432705
H 1.255498 -3.04023 -1.334833
C 1.483176 -0.131603 -0.042189
C 3.409915 -1.409256 -0.405014
H 3.654076 -1.650807 -1.46409
H 3.900276 -2.164064 0.240954
C 3.799701 0.042512 -0.024268
H 4.242487 0.101031 0.993994
H 4.510856 0.498984 -0.740514
C 2.305474 2.148942 0.255718
H 3.239365 2.687866 0.000942
H 2.096769 2.290129 1.33857
C 1.183293 2.765711 -0.566789
H 1.196268 3.865003 -0.40756
H 1.330445 2.562592 -1.653037
C -1.192334 3.07729 -0.645385
H -2.100124 2.740842 -0.11478
H -1.319559 2.957658 -1.743941
H -1.008982 4.146059 -0.409328
