60

O -0.613749 1.396405 -1.840721
H -0.728893 0.677986 -2.532256
H -1.128449 2.158394 -2.174076
Ru -1.771022 0.21989 -0.346994
Cl -1.633403 -1.222654 -2.260405
N 1.065184 -1.091735 0.059497
N -0.512063 -1.613939 1.495792
C -0.209372 -0.863871 0.393326
C 1.673103 -2.149498 0.890764
H 2.673532 -1.833272 1.243488
H 1.795031 -3.068896 0.277656
C 0.649045 -2.334914 2.025947
H 0.409064 -3.399711 2.218678
H 0.982464 -1.880229 2.986406
C -1.804337 -1.539617 2.157297
H -1.666623 -1.31841 3.238218
H -2.338196 -2.509734 2.096516
C -2.584282 -0.428284 1.471654
C -3.520846 -0.730428 0.409282
C -4.042829 0.364522 -0.39244
H -4.728025 0.12142 -1.218521
C -3.573351 1.682281 -0.252257
C -2.569601 1.928288 0.765783
H -2.125887 2.933834 0.840052
C -2.143707 0.942233 1.701217
C -3.992433 -2.130515 0.123241
H -4.407504 -2.197886 -0.898491
H -4.788031 -2.418396 0.842274
H -3.175626 -2.871645 0.190183
C -4.026118 2.793359 -1.155513
H -3.194313 3.483066 -1.406281
H -4.797938 3.408453 -0.646275
H -4.467149 2.406298 -2.093253
C -1.19644 1.305722 2.811058
H -0.355923 0.593098 2.905794
H -1.740205 1.314789 3.779336
H -0.770608 2.313757 2.653892
C 1.815958 -0.506449 -1.056203
H 1.202083 0.318209 -1.451035
H 1.904369 -1.269496 -1.855313
C 3.175525 -0.001378 -0.61831
C 4.354953 -0.724292 -0.934821
C 5.593661 -0.23734 -0.477687
H 6.507409 -0.800886 -0.725485
C 5.702123 0.941747 0.280734
C 4.518557 1.641461 0.579153
H 4.578175 2.570848 1.168407
C 3.259827 1.195368 0.141572
C 4.321778 -1.994026 -1.755267
H 5.341521 -2.400354 -1.890549
H 3.899002 -1.825705 -2.76771
H 3.71215 -2.7923 -1.282531
C 7.045303 1.45798 0.726907
H 6.96792 2.053188 1.657518
H 7.488258 2.119917 -0.047961
H 7.764704 0.633614 0.898048
C 2.027282 2.00385 0.47325
H 1.486188 2.318296 -0.443166
H 2.29318 2.915583 1.04061
H 1.296517 1.427427 1.077083
