83

Br 2.836531 -0.301906 -2.084529
C -2.083285 -0.964753 -0.25677
C -1.377655 -2.15939 0.029041
C -2.138611 -3.270362 0.450671
H -1.632248 -4.21869 0.678565
C -3.528403 -3.185862 0.604167
H -4.096315 -4.063222 0.947124
C -4.19644 -1.988449 0.311118
H -5.288459 -1.93711 0.420522
C -3.486305 -0.864492 -0.140604
C -4.135334 0.444236 -0.601007
C -3.223404 1.585011 -0.13954
C -3.678949 2.833479 0.313728
H -4.757 3.014772 0.423506
C -2.772108 3.861454 0.608372
H -3.140972 4.838744 0.952976
C -1.396014 3.649415 0.454658
H -0.699994 4.468246 0.684257
C -0.888039 2.403039 0.03093
C -1.831032 1.385517 -0.256084
C -5.569277 0.597984 -0.080782
H -5.607888 0.601649 1.026531
H -6.210639 -0.224873 -0.451
H -6.021217 1.538617 -0.450195
C -4.155982 0.447128 -2.156243
H -4.581456 1.399724 -2.531454
H -4.774287 -0.392876 -2.532197
H -3.135151 0.337472 -2.571374
C 0.577584 -2.984919 -1.936363
H 1.655411 -2.843088 -2.171965
C 0.18629 -4.458717 -2.057084
H -0.864697 -4.631582 -1.743649
H 0.84162 -5.131634 -1.470209
H 0.264648 -4.773031 -3.119025
C -0.223041 -2.111403 -2.908055
H -0.002472 -2.418943 -3.950614
H 0.054374 -1.045402 -2.809281
H -1.315709 -2.217329 -2.744916
C 0.999255 -3.677115 0.92961
H 0.48273 -4.590147 0.562746
C 0.641155 -3.463488 2.404691
H 0.905359 -4.374907 2.980823
H -0.436137 -3.26217 2.559
H 1.199713 -2.612766 2.836502
C 2.512024 -3.854626 0.733134
H 3.053802 -2.935926 1.037994
H 2.784672 -4.063468 -0.320429
H 2.881096 -4.696307 1.354754
C 1.199627 2.796544 -1.932935
H 2.223358 2.429909 -2.16721
C 0.233968 2.112453 -2.906368
H -0.811968 2.446533 -2.744746
H 0.28021 1.011887 -2.807827
H 0.516031 2.367028 -3.948395
C 1.129456 4.319871 -2.05294
H 1.274129 4.611 -3.11452
H 1.911655 4.838404 -1.464741
H 0.138511 4.711283 -1.740685
C 1.756822 3.380445 0.934033
H 1.44499 4.382791 0.569298
C 3.272801 3.234227 0.73648
H 3.811907 3.977614 1.359208
H 3.582726 3.382749 -0.316999
H 3.608246 2.221144 1.039186
C 1.362411 3.244552 2.40901
H 1.728414 2.293901 2.838503
H 0.266995 3.275673 2.564033
H 1.814031 4.078109 2.986631
C 0.850005 -0.092924 1.941229
C -0.416661 0.044596 2.535094
H -1.320995 0.144325 1.919711
C -0.560214 0.058121 3.935535
H -1.565163 0.16714 4.373853
C 0.56019 -0.065525 4.769611
H 0.44462 -0.054544 5.864101
C 1.833487 -0.203609 4.19031
H 2.725477 -0.301969 4.82925
C 1.975028 -0.216933 2.792726
H 2.983153 -0.326415 2.35829
O -1.36934 0.147378 -0.659003
P 0.45618 -2.274104 -0.189986
P 0.928567 2.126146 -0.187405
Pd 1.385081 -0.148441 -0.005234
