76

C -0.00026 -1.287245 9.2e-05
C 0.295656 -2.044862 1.141214
C 0.280667 -3.447513 1.096747
C 2.590484 1.80223 -2.192946
H 3.451325 1.277951 -2.663498
C 3.2112 -0.791981 -0.918691
H 2.856022 -1.441786 -0.092372
C 3.126216 1.698332 0.748777
H 4.203827 1.82059 0.518365
H 2.649072 2.69903 0.758245
C 2.9271 1.061631 2.117107
H 3.39538 1.715945 2.895362
H 1.835051 1.000696 2.348633
C 1.3766 1.704823 -3.128633
H 0.519437 2.251905 -2.686821
H 1.057922 0.658261 -3.299514
H 1.616404 2.159591 -4.112356
C 2.993977 3.259752 -1.943777
H 3.171072 3.760039 -2.918879
H 3.926314 3.347786 -1.352993
H 2.186162 3.806005 -1.418823
C 2.839345 -1.432005 -2.263151
H 3.270929 -0.86772 -3.115274
H 1.749201 -1.503613 -2.424454
H 3.254891 -2.459396 -2.310703
C 4.727935 -0.617062 -0.78344
H 5.233608 -1.575164 -1.026367
H 5.009164 -0.339029 0.248605
H 5.124175 0.144905 -1.488395
C 3.479127 -0.833015 3.411486
H 4.025254 -0.226433 4.174434
H 3.973641 -1.819574 3.322294
H 2.435978 -0.992169 3.76622
N -0.001102 -4.127677 0.000324
O 3.516954 -0.224271 2.139108
F 0.565902 -1.434755 2.32473
F 0.554162 -4.14447 2.209613
P 2.261279 0.803078 -0.626309
Cl 0.000615 3.110657 -0.000129
Pd 0.000186 0.704348 -5.1e-05
C -0.296516 -2.044882 -1.140938
C -0.282417 -3.447529 -1.09623
C -2.589679 1.803588 2.192521
H -3.450734 1.279751 2.66318
C -3.211428 -0.790698 0.918887
H -2.856516 -1.440824 0.092706
C -3.1254 1.6992 -0.749165
H -4.202956 1.821989 -0.518776
H -2.647837 2.699699 -0.758913
C -2.926623 1.06198 -2.117316
H -3.394613 1.716243 -2.895784
H -1.834611 1.00048 -2.348847
C -1.375834 1.705958 3.128221
H -0.518493 2.252693 2.686324
H -1.057501 0.65932 3.299288
H -1.615517 2.160978 4.111857
C -2.9926 3.261187 1.942931
H -3.169554 3.761817 2.917885
H -3.924873 3.349413 1.352077
H -2.18456 3.806992 1.417852
C -2.839842 -1.430591 2.263487
H -3.27128 -0.86599 3.115478
H -1.749728 -1.502542 2.424868
H -3.25575 -2.457826 2.311209
C -4.728079 -0.615178 0.78357
H -5.234165 -1.572996 1.026749
H -5.009156 -0.33729 -0.248556
H -5.12401 0.147156 1.488303
C -3.479687 -0.832905 -3.410999
H -4.024957 -0.225977 -4.174281
H -3.975387 -1.818845 -3.321531
H -2.436641 -0.993396 -3.765426
O -3.517092 -0.223647 -2.138844
F -0.566213 -1.434806 -2.324602
F -0.556322 -4.144505 -2.208979
P -2.260853 0.803908 0.626137
