71

C 2.63095 0.140453 -2.605671
H 2.654279 1.057823 -3.220583
H 2.605768 -0.756166 -3.256041
H 3.542225 0.105029 -1.977657
C -0.126058 0.703113 -3.184387
H 0.495529 1.421331 -3.750109
H -1.077685 1.188237 -2.888987
H -0.317695 -0.205206 -3.788068
C 0.895067 -1.79632 1.571523
C 0.06337 -1.004558 2.395694
H 0.191706 0.088288 2.416519
C -0.919786 -1.606334 3.193121
H -1.555728 -0.980238 3.837518
C -1.094146 -3.001373 3.168604
H -1.866424 -3.472755 3.795237
C -0.277091 -3.790308 2.343895
H -0.407964 -4.882685 2.319394
C 0.715008 -3.19371 1.549103
H 1.353107 -3.816045 0.904453
C 3.319182 -2.256362 0.021453
C 3.074085 -3.081158 -1.098126
H 2.166498 -2.90084 -1.704853
C 3.990328 -4.094607 -1.420422
H 3.799835 -4.737195 -2.293665
C 5.146393 -4.282541 -0.646457
H 5.864256 -5.074822 -0.909016
C 5.392182 -3.45254 0.459764
H 6.301373 -3.591486 1.064468
C 4.482673 -2.439776 0.797054
H 4.681901 -1.788177 1.660708
C 2.995254 0.199246 1.521716
C 3.060986 0.044991 2.922785
H 2.530528 -0.784953 3.41188
C 3.802298 0.94963 3.698379
H 3.84432 0.821599 4.790782
C 4.486601 2.01177 3.086237
H 5.059812 2.72461 3.698213
C 4.438292 2.159376 1.691195
H 4.967762 2.989565 1.199728
C 3.700527 1.256707 0.9119
H 3.671397 1.381478 -0.178284
C -0.44704 2.035485 0.065251
C -0.712249 3.2532 0.723806
C 0.189111 4.320564 0.633057
C 1.353837 4.154163 -0.137005
C 1.606852 2.940816 -0.808752
C 0.753018 1.840563 -0.702493
N -1.030513 -0.162469 -0.497273
C -1.846677 -1.369514 -0.579623
H -1.443117 -2.086411 0.167731
H -1.616901 -1.821863 -1.56686
C -3.322598 -1.144333 -0.3696
C -4.105589 -0.583979 -1.399852
H -3.636218 -0.349316 -2.368571
C -5.468664 -0.321824 -1.212395
H -6.074386 0.110732 -2.021055
C -6.059554 -0.624197 0.026308
C -5.303842 -1.183347 1.067913
H -5.780111 -1.418039 2.030246
C -3.9391 -1.436749 0.861671
H -3.337815 -1.874793 1.673475
C -1.386353 0.930198 0.105715
H -2.363843 1.029374 0.61225
F -1.835405 3.410558 1.44411
F -0.042895 5.477941 1.261362
F 2.220715 5.164995 -0.233838
F 2.739292 2.90201 -1.54081
F 0.641933 -1.902323 -2.285178
P 2.077872 -0.967713 0.434742
Br -7.910829 -0.272427 0.292812
Pt 0.879946 -0.004208 -1.495724
