81

Pd 0.148243 -0.045175 0.157014
O 0.355501 1.921702 -0.364609
O 0.889358 1.382143 -2.502784
N -2.309347 -1.613878 -1.375986
N -3.939913 -1.001215 0.18647
N -1.876341 0.173224 0.094175
C -2.535871 -3.046947 -1.2827
H -3.217392 -3.270459 -0.442839
H -1.572885 -3.57095 -1.091092
H -2.979433 -3.445976 -2.220242
C -1.313294 -1.216721 -2.357248
H -1.231995 -0.117752 -2.414925
H -1.606362 -1.621445 -3.350181
H -0.302525 -1.60473 -2.102352
C -5.077242 -1.303124 -0.660756
H -4.778566 -1.233732 -1.722531
H -5.900238 -0.576169 -0.475896
H -5.483561 -2.32433 -0.475377
C -4.189423 -0.950815 1.615603
H -3.229657 -0.921574 2.168508
H -4.739495 -1.868474 1.923901
H -4.814779 -0.075305 1.907673
C -2.677432 -0.781235 -0.343042
C -2.403326 1.403184 0.683198
H -1.549743 1.923912 1.156147
H -3.136952 1.206054 1.49271
C -3.018762 2.320052 -0.37907
H -2.278687 2.442868 -1.198217
H -3.90616 1.820641 -0.830094
C -3.416416 3.691889 0.16903
H -2.519845 4.167015 0.625916
H -4.144561 3.563365 1.001139
C -4.003736 4.619967 -0.894756
H -3.27794 4.794709 -1.716555
H -4.279195 5.608457 -0.474696
H -4.916889 4.184007 -1.351777
C 0.654635 2.203646 -1.604215
C 0.738849 3.708541 -1.863666
H 0.740472 3.907934 -2.950479
H 1.68212 4.100194 -1.428593
H -0.094594 4.247174 -1.371496
O -0.142962 -1.967122 0.798039
O -1.088457 -1.230644 2.729447
N 2.589622 1.20312 1.958244
N 4.033777 1.341361 0.118364
N 2.206609 -0.190078 0.113775
C 2.502658 2.629599 2.230255
H 2.963968 3.201806 1.40597
H 1.437085 2.94232 2.30074
H 3.013121 2.891004 3.182278
C 1.825747 0.351605 2.857532
H 2.094361 -0.70602 2.682187
H 2.074926 0.625644 3.904081
H 0.724415 0.433873 2.710617
C 5.191264 1.717494 0.906715
H 5.087311 1.319792 1.932398
H 6.116398 1.298176 0.451653
H 5.321244 2.822967 0.970415
C 4.079261 1.6966 -1.289918
H 3.115293 1.474536 -1.782651
H 4.278584 2.787789 -1.3951
H 4.88848 1.154667 -1.828807
C 2.917993 0.757879 0.696515
C 2.766344 -1.029169 -0.94293
H 2.281655 -0.752411 -1.905676
H 3.854435 -0.826201 -1.053244
C 2.567722 -2.523326 -0.67081
H 1.500304 -2.710364 -0.436977
H 3.12811 -2.801523 0.249801
C 3.017673 -3.397713 -1.843175
H 2.459133 -3.092006 -2.756521
H 4.09003 -3.203058 -2.072785
C 2.807375 -4.891086 -1.590333
H 1.73772 -5.114204 -1.392765
H 3.126291 -5.508217 -2.454806
H 3.380536 -5.23415 -0.703527
C -0.72609 -2.129998 1.956597
C -0.9959 -3.598996 2.285781
H -1.004049 -3.74289 3.382097
H -2.001938 -3.871155 1.902167
H -0.258269 -4.272101 1.80948
