59

Ni -6e-06 -0.548022 -6.3e-05
H -1e-06 -2.093667 -0.000328
P -2.117879 -0.410766 0.008583
P 2.117869 -0.410789 -0.008642
C -2e-06 1.381053 0.000157
C -1.196625 2.125998 -0.238068
C -1.193175 3.533389 -0.230143
H -2.127755 4.088529 -0.414462
C 5.5e-05 4.236572 0.000238
H 7.8e-05 5.337611 0.000263
C 1.193258 3.533329 0.230587
H 2.12786 4.088422 0.414932
C 1.19665 2.125939 0.238437
C 2.464096 1.345062 0.526877
H 2.672358 1.32065 1.61986
H 3.368012 1.773543 0.042603
C -2.464112 1.3452 -0.526551
H -2.672513 1.321038 -1.619513
H -3.367963 1.773592 -0.042074
C -2.933189 -0.562253 1.685922
H -3.996319 -0.260586 1.550323
C -2.260133 0.405902 2.667556
H -2.764018 0.360517 3.655714
H -2.287849 1.455264 2.313578
H -1.192111 0.140459 2.808057
C -2.867696 -2.011363 2.181165
H -1.816916 -2.368141 2.190761
H -3.452824 -2.703742 1.54343
H -3.27104 -2.085864 3.212551
C -3.1093 -1.503991 -1.136958
H -3.005632 -2.510884 -0.676611
C -4.591819 -1.13465 -1.231497
H -4.729404 -0.117651 -1.65398
H -5.097178 -1.162766 -0.24514
H -5.127862 -1.841989 -1.898903
C -2.410553 -1.542951 -2.501467
H -2.904429 -2.27336 -3.17569
H -1.3469 -1.833073 -2.381136
H -2.439607 -0.553505 -3.004554
C 2.933245 -0.561926 -1.685979
H 3.996369 -0.260286 -1.550272
C 2.260227 0.406438 -2.667435
H 2.764147 0.361259 -3.655584
H 2.28793 1.455727 -2.313236
H 1.192209 0.141025 -2.808032
C 2.867776 -2.010928 -2.181536
H 1.816997 -2.367704 -2.191257
H 3.452878 -2.703443 -1.543924
H 3.271168 -2.085205 -3.212919
C 3.109227 -1.504268 1.136713
H 3.005595 -2.511058 0.676135
C 4.591739 -1.134935 1.231421
H 4.729292 -0.11804 1.654162
H 5.097148 -1.162803 0.245083
H 5.127754 -1.842435 1.89868
C 2.410401 -1.543541 2.501172
H 2.904264 -2.274074 3.175271
H 1.346766 -1.833676 2.380719
H 2.439389 -0.5542 3.00447
