24

C 0.944891 -1.324307 0.000238
C 1.980652 -2.300439 0.000367
H 1.693735 -3.360977 0.000528
C 3.313571 -1.907877 0.000284
H 4.121417 -2.65187 0.000317
C 3.714257 -0.555333 0.000144
C 2.72555 0.493523 4e-06
C 1.350915 0.076255 6.6e-05
C 2.960173 1.899123 -0.000236
H 3.994972 2.256307 -0.000269
C 1.876807 2.77155 -0.000332
H 2.036036 3.859799 -0.00052
C 0.561592 2.281107 -0.000155
H -0.320158 2.938478 -0.000151
Cl -1.508655 -0.146329 -2.35961
Cl -1.509556 -0.145781 2.359656
Cl -3.574229 -1.197894 -0.000168
N -2.272674 1.714674 -0.000341
N 0.309903 0.961822 2e-05
N 5.140642 -0.303037 0.000103
O -0.302989 -1.58818 0.000291
O 5.91271 -1.277416 -0.000482
O 5.555338 0.87243 0.000683
Os -1.678823 0.171287 -3.3e-05
