53

Ir -0.093081 -0.117618 -0.0953
P 1.776428 0.034576 -1.442384
O -1.931946 -0.194156 0.970246
S -3.083008 -0.199969 -0.246432
C 0.068345 -3.624457 -0.407714
H 0.896116 -3.612354 -1.140752
H -0.604298 -4.466779 -0.679566
H 0.478184 -3.8785 0.589265
O -3.843159 -1.489221 -0.193332
C -0.732749 -2.35507 -0.37953
H -1.510718 -2.304116 0.401239
C -0.969247 -1.588102 -1.551967
H -0.43639 -1.85784 -2.483991
P -0.396797 2.213819 0.166599
P 1.083802 -0.558838 1.897136
C -1.718705 -0.372849 -1.529
H -1.877182 0.186515 -2.465075
C 1.442516 0.943924 -3.007806
H 1.160572 1.990521 -2.783718
H 0.59526 0.46437 -3.535305
H 2.330757 0.942183 -3.67014
C 3.275778 0.870751 -0.776177
H 4.042964 0.951151 -1.571512
H 3.695442 0.273551 0.055135
H 3.038272 1.880675 -0.401967
C 2.515907 -1.540592 -2.04731
H 1.794003 -2.094822 -2.674996
H 2.799693 -2.177227 -1.188458
H 3.418701 -1.322658 -2.651698
C 1.007024 3.40511 0.117853
H 1.494335 3.402936 -0.875583
H 1.755512 3.155923 0.893021
H 0.620889 4.425454 0.313268
C -1.541704 2.918063 -1.08988
H -1.680187 4.004459 -0.919652
H -2.522256 2.409305 -1.006336
H -1.141427 2.752248 -2.1082
C -1.229739 2.629646 1.747863
H -1.564684 3.685197 1.733371
H -0.53935 2.480065 2.598831
H -2.087344 1.942219 1.868255
C 1.955341 0.80409 2.7807
H 2.748169 1.233958 2.139666
H 2.418985 0.418993 3.710722
H 1.240904 1.604072 3.049783
C 2.39749 -1.846659 1.832379
H 3.270742 -1.483708 1.257359
H 2.003362 -2.755109 1.341625
H 2.733206 -2.102381 2.85704
C -0.098586 -1.202383 3.139004
H -0.965734 -0.518085 3.2034
H 0.390663 -1.31758 4.125806
H -0.482461 -2.181693 2.794097
