52

C 0.11065 0.283173 -2.414756
C -0.332391 -1.104229 -2.15171
C -1.768751 -1.410674 -2.385566
C -2.760202 -0.746348 -1.760506
C -1.68468 -2.854148 0.927546
H -1.325837 -3.384407 0.024761
H -1.879702 -3.579607 1.743406
H -2.611489 -2.303287 0.680066
C -1.164795 -0.973184 3.011425
H -0.434056 -0.316429 3.523365
H -2.060065 -0.389558 2.719731
H -1.452213 -1.803597 3.688421
C 0.890671 -2.720171 2.108372
H 1.422932 -3.223873 1.277481
H 1.619107 -2.136181 2.701696
H 0.440219 -3.49274 2.764475
C -1.170257 2.53753 1.884145
H -1.22243 1.87374 2.766636
H -1.035323 3.587717 2.213754
H -2.10942 2.439817 1.307741
C 0.252289 3.411069 -0.422555
H -0.689309 3.297992 -0.997936
H 0.28806 4.406719 0.064837
H 1.109681 3.291629 -1.112067
C 1.657497 2.440884 1.91699
H 1.6688 1.725676 2.76351
H 2.62213 2.36382 1.380228
H 1.557754 3.47036 2.317696
C 3.303409 1.016376 -1.229538
H 3.224568 1.921955 -0.598731
H 4.373849 0.761245 -1.365079
H 2.850555 1.246005 -2.211958
C 3.422737 -0.638178 1.075387
H 3.153043 0.098815 1.853748
H 3.251212 -1.652224 1.47719
H 4.497013 -0.530012 0.823418
C 2.929918 -1.800255 -1.477543
H 2.553197 -1.665347 -2.509613
H 4.035472 -1.878613 -1.502032
H 2.498979 -2.736668 -1.073018
O -3.084829 0.026525 0.748123
O -2.566657 1.793937 -0.998444
P -0.429542 -1.601059 1.439459
P 0.234296 2.031804 0.798854
P 2.379655 -0.377974 -0.432266
S -2.267042 0.406682 -0.471496
Ir 0.069093 -0.057742 -0.305089
H -0.643776 0.997474 -2.789437
H 1.0939 0.422346 -2.900242
H 0.346859 -1.922547 -2.445821
H -2.022826 -2.159186 -3.158588
H -3.839166 -0.79816 -1.970116
