73

Rh -1.60555 -0.343382 -0.25376
Cl -1.004557 -0.060736 -2.56325
P 0.630767 0.00936 0.203403
O 3.456509 -0.988554 0.402095
O -1.014762 -2.336008 -0.412373
O 0.463006 2.937477 0.455118
O 2.294481 -0.435393 -2.295
C -3.73341 0.220378 -0.70596
C -2.998359 1.296668 -0.039321
C -2.612113 0.818161 1.275795
C -3.006549 -0.574295 1.376398
C -3.712991 -0.928361 0.14356
C -4.324732 0.329257 -2.071672
C -2.830266 2.676342 -0.591135
C -2.014328 1.648037 2.366331
C -2.881954 -1.486299 2.555558
C -4.213686 -2.302291 -0.161209
C 1.255476 -1.668889 -0.033095
C 2.617547 -2.024386 0.114641
C 3.021558 -3.35778 -0.052251
C 2.035664 -4.322713 -0.363448
C 0.689687 -3.996032 -0.503549
C 0.260172 -2.644192 -0.327918
C 4.835045 -1.252783 0.545427
C 1.451271 1.250839 -0.875128
C 1.225822 2.630151 -0.63957
C 1.741687 3.618708 -1.499821
C 2.43884 3.222036 -2.647879
C 2.63028 1.870348 -2.944806
C 2.139205 0.882448 -2.064454
C 0.401456 4.285684 0.883141
C 2.56705 -0.896338 -3.603356
C 1.190244 0.369541 1.925658
C 2.150047 1.338475 2.269204
C 2.552259 1.488681 3.605254
C 2.008587 0.668978 4.607549
C 1.071975 -0.320007 4.264466
C 0.669749 -0.470565 2.92965
H -4.898153 -0.576611 -2.342938
H -4.99984 1.207231 -2.135393
H -3.512197 0.456994 -2.820602
H -2.51761 2.630198 -1.652841
H -3.778546 3.254291 -0.533621
H -2.051144 3.229766 -0.037892
H -1.208544 2.294239 1.976285
H -2.796246 2.291958 2.822799
H -1.574235 1.024004 3.16511
H -2.220647 -1.062886 3.333849
H -3.875351 -1.667602 3.020356
H -2.472429 -2.469454 2.249105
H -4.902831 -2.663789 0.629738
H -4.742515 -2.339949 -1.131614
H -3.352294 -3.002976 -0.216401
H 4.073185 -3.655047 0.044888
H 2.348934 -5.370318 -0.498823
H -0.067584 -4.755412 -0.744266
H 5.31569 -0.285746 0.78516
H 5.036869 -1.972093 1.370679
H 5.276728 -1.656009 -0.393728
H 1.577564 4.684132 -1.298112
H 2.830602 3.988917 -3.333265
H 3.160452 1.576922 -3.85945
H -0.117812 4.933967 0.143245
H -0.176337 4.285551 1.826394
H 1.415155 4.699298 1.078146
H 2.487903 -1.998216 -3.555436
H 1.816648 -0.506426 -4.324167
H 3.591621 -0.621815 -3.94202
H 2.605464 1.958171 1.48404
H 3.306822 2.247668 3.864255
H 2.326433 0.790781 5.654334
H 0.658065 -0.983718 5.039209
H -0.043381 -1.260714 2.649264
