84

Ir -0.448389 -0.992519 0.077929
P 1.34474 0.479609 -0.163474
O 3.162365 2.653691 0.899185
O -0.717169 0.0856 1.862984
O -2.052543 -0.054132 -2.030077
C 0.605509 -2.996662 -0.342611
C 0.18893 -2.987215 1.032508
C -1.267066 -2.855555 1.046554
C -1.737045 -2.804216 -0.316167
C -0.569699 -2.819869 -1.190119
C 1.98378 -3.260391 -0.849547
C 1.040514 -3.171673 2.249494
C -2.089866 -2.801788 2.292309
C -3.160477 -2.78556 -0.770091
C -0.598935 -2.925159 -2.682318
C 1.17566 1.532741 -1.655524
C 0.889909 0.90381 -2.887434
C 0.694129 1.673321 -4.043548
C 0.760848 3.075358 -3.973484
C 1.033427 3.702791 -2.747202
C 1.248625 2.937633 -1.590007
C 3.033651 -0.219518 -0.206501
C 3.773027 -0.333278 -1.398821
C 5.048612 -0.919644 -1.375968
C 5.590496 -1.38798 -0.169044
C 4.85816 -1.261197 1.024444
C 3.582906 -0.680545 1.00878
C 1.211853 1.427834 1.358954
C 2.162144 2.399636 1.783384
C 2.020572 3.01462 3.035136
C 0.926702 2.650527 3.850573
C -0.006749 1.690116 3.465744
C 0.13726 1.037712 2.210703
C 4.21866 3.52402 1.285167
C -1.559266 0.326601 -0.865741
C -2.861929 0.795281 -2.878858
C -1.942605 1.69552 -0.359054
C -3.374248 1.68923 0.170788
C -3.752385 0.780474 1.181628
C -5.066943 0.774912 1.67055
C -6.017444 1.675686 1.163689
C -5.643861 2.592607 0.169144
C -4.331045 2.596193 -0.327339
H 2.20425 -2.695853 -1.774254
H 2.762238 -3.010832 -0.106869
H 2.075866 -4.3412 -1.090072
H 0.948433 -4.205954 2.643874
H 2.1088 -2.99096 2.028424
H 0.736815 -2.479784 3.059199
H -1.995623 -3.7493 2.861858
H -1.739954 -1.976309 2.945922
H -3.160654 -2.637916 2.072385
H -3.834199 -2.358009 -0.004099
H -3.277723 -2.194786 -1.697588
H -3.501778 -3.819616 -0.987769
H -1.363265 -2.253516 -3.115511
H 0.379936 -2.660735 -3.125622
H -0.836583 -3.962806 -3.000046
H 0.792988 -0.191892 -2.931867
H 0.481223 1.176725 -5.002316
H 0.600165 3.680401 -4.878394
H 1.084645 4.800427 -2.689613
H 1.471692 3.430271 -0.634572
H 3.362574 0.047662 -2.345527
H 5.625654 -1.003463 -2.309032
H 6.591598 -1.844093 -0.154948
H 5.287107 -1.611703 1.975311
H 3.012193 -0.567072 1.943514
H 2.735318 3.771064 3.381437
H 0.813716 3.142059 4.829058
H -0.847233 1.406823 4.113779
H 4.735179 3.151614 2.195544
H 4.93006 3.537368 0.439887
H 3.85061 4.556072 1.471578
H -3.780217 1.112389 -2.350468
H -2.271643 1.675375 -3.201831
H -3.113197 0.173604 -3.755661
H -1.241558 1.993535 0.441558
H -1.841818 2.443236 -1.172938
H -2.991371 0.109955 1.606564
H -5.34903 0.067545 2.465348
H -7.047134 1.67084 1.551074
H -6.377032 3.313856 -0.221952
H -4.042265 3.325276 -1.101562
