83

Ru 0.716573 -0.444932 0.014672
P -1.700984 -0.458811 0.05338
O 0.587047 -0.629026 3.014188
O 0.692435 -2.49346 -0.580648
O 0.885704 -0.863597 -2.062158
O 0.93506 -3.025129 -2.784858
N 3.672554 0.054946 -0.788296
N 3.522397 -1.54084 0.664973
N 0.185133 2.391034 -1.005037
N 1.225134 2.504179 0.887308
C 0.636161 -0.526869 1.838465
C 0.851357 -2.208083 -1.879821
C 2.767557 -0.629763 -0.022573
C 4.976981 -0.399048 -0.567828
C 4.880697 -1.414647 0.359985
C 3.302385 1.05878 -1.774919
H 2.366377 0.721168 -2.257545
H 4.098192 1.129959 -2.537836
H 3.162054 2.054155 -1.30731
C 6.168026 0.157072 -1.269989
H 7.091448 -0.313347 -0.883684
H 6.266384 1.253896 -1.127675
H 6.135717 -0.032849 -2.364374
C 5.936443 -2.278719 0.959514
H 6.937064 -1.949414 0.622497
H 5.822625 -3.343492 0.663329
H 5.926314 -2.242345 2.069003
C 2.960657 -2.572161 1.529516
H 2.801172 -2.194765 2.558761
H 3.651515 -3.433586 1.562358
H 2.000187 -2.893626 1.083042
C 0.745896 1.593307 -0.031301
C 0.251924 3.74686 -0.675113
C 0.913795 3.822455 0.528482
C -0.387243 1.905617 -2.24856
H -0.107289 0.84322 -2.378817
H 0.01801 2.487462 -3.099677
H -1.490711 2.007999 -2.242904
C -0.367099 4.806775 -1.517305
H -0.214172 5.802255 -1.060469
H -1.46157 4.646524 -1.619885
H 0.060519 4.837688 -2.541664
C 1.241833 4.999852 1.37983
H 2.335939 5.138828 1.516598
H 0.792315 4.916566 2.392268
H 0.848914 5.924247 0.91687
C 1.977682 2.162666 2.079703
H 1.316913 2.009202 2.956536
H 2.695829 2.971805 2.308828
H 2.533921 1.226946 1.898166
C -2.316235 -1.589779 1.374884
C -1.7548 -2.885437 1.399577
H -0.970235 -3.145601 0.666925
C -2.18922 -3.810293 2.359218
H -1.751355 -4.820209 2.375459
C -3.170458 -3.45293 3.299662
H -3.503485 -4.181623 4.054738
C -3.722531 -2.163248 3.277863
H -4.488592 -1.87677 4.014924
C -3.299986 -1.231166 2.315748
H -3.734053 -0.219926 2.304151
C -2.406751 1.189021 0.515283
C -1.92779 1.80947 1.691594
H -1.240521 1.262361 2.353771
C -2.31865 3.114707 2.01731
H -1.938864 3.582707 2.938857
C -3.189216 3.825514 1.172989
H -3.490013 4.853518 1.426535
C -3.680179 3.212174 0.011115
H -4.374611 3.754541 -0.649169
C -3.294834 1.900077 -0.315016
H -3.689467 1.424182 -1.225262
C -2.745921 -0.989395 -1.376191
C -4.126035 -1.228363 -1.189953
H -4.574037 -1.110816 -0.191296
C -4.925459 -1.626125 -2.269407
H -6.000204 -1.808335 -2.115213
C -4.352546 -1.807251 -3.540535
H -4.979482 -2.131707 -4.385445
C -2.979646 -1.590769 -3.723856
H -2.517418 -1.755566 -4.708838
C -2.172915 -1.179993 -2.649259
H -1.091532 -1.033465 -2.792313
