63

C -0.049409 -2.527349 2.214318
C 1.225826 -3.309813 2.307245
H 1.116249 -4.155728 3.010695
H 2.047708 -2.647525 2.650757
H 1.5175 -3.696824 1.309743
C -1.154147 -2.816929 3.028873
H -1.078827 -3.643362 3.749041
C -2.322561 -2.052992 2.920943
H -3.190918 -2.270031 3.560909
C -2.369653 -1.010619 1.99525
H -3.24519 -0.360808 1.873136
C -1.249152 -0.753602 1.193417
C 3.361259 -1.445225 -2.72359
H 4.215887 -1.032821 -3.291902
H 2.403137 -1.323285 -3.259259
H 3.499006 -2.507535 -2.450831
C -1.269809 0.311415 0.12534
H -0.254693 0.769794 0.040866
H -1.435967 -0.203351 -0.850313
C -3.130689 1.612329 -0.900272
H -2.490596 1.88291 -1.771138
H -3.7744 2.471037 -0.637798
C -3.970568 -1.708108 -2.244654
C -3.965002 0.398386 -1.252472
C -3.18275 -2.726306 -3.022867
H -3.752618 -3.659901 -3.187739
H -2.239719 -2.957363 -2.48505
H -2.883251 -2.307808 -4.005319
C -0.492719 3.329083 0.624023
C 0.762306 2.829376 1.01073
H 0.849273 2.127457 1.852343
C -5.27445 0.236222 -0.761469
H -5.745461 1.030437 -0.163311
C -5.945278 -0.958208 -1.052882
H -6.973902 -1.122732 -0.696449
C -5.286835 -1.94666 -1.79796
H -5.784022 -2.899683 -2.033027
C 1.895012 3.205683 0.283323
H 2.865027 2.764466 0.553904
C 0.529467 4.601064 -1.154299
H 0.44058 5.301119 -1.999975
C 3.024687 4.403786 -1.628775
H 2.800789 5.0934 -2.465201
H 3.450639 3.465572 -2.041266
H 3.811954 4.867903 -0.999076
C 1.798147 4.080641 -0.81896
C 4.801887 -0.84084 -0.407425
H 5.612562 -0.472068 -1.063465
H 4.852901 -1.933126 -0.240684
H 4.766152 -0.30778 0.56132
C -0.622064 4.226416 -0.448469
H -1.612868 4.620168 -0.718038
N -0.121823 -1.502011 1.318096
N -2.325224 1.30098 0.288792
N -3.342466 -0.544823 -1.978995
O -1.571706 1.972458 2.630625
O -3.090023 3.547685 1.246252
O 3.268245 1.00349 -1.637779
S -1.955375 2.606371 1.353429
S 3.228946 -0.439012 -1.21919
Cl 0.416529 -2.216003 -1.639637
Cl 2.566102 -0.030137 1.944811
Pt 1.514418 -1.066416 0.097655
