52

Pd -0.655734 0.403764 -0.41347
Cl -0.439729 0.608698 1.910362
Cl -0.691596 0.131216 -2.76958
C 1.003086 -0.613514 -0.389033
N 3.132197 -1.324436 -0.170512
N -2.510111 1.464719 -0.413576
N 1.068975 -1.985428 -0.619468
C 2.348111 -2.437112 -0.488713
C 4.304971 -3.837089 -0.457429
H 4.781055 -4.822261 -0.557301
C 4.49651 -1.450579 -0.031422
H 5.043823 -0.522363 0.171909
C 5.08981 -2.690267 -0.168433
H 6.179512 -2.76775 -0.054779
C 2.928519 -3.708548 -0.627492
H 2.295373 -4.570724 -0.873525
C 2.306869 -0.196173 -0.101153
C 2.236777 2.240719 -0.539985
H 1.512673 2.029335 -1.341764
C 2.7723 1.160086 0.20094
C 3.524256 3.799096 0.777548
C 3.681954 1.438104 1.246413
H 4.061417 0.623762 1.881418
C 4.066685 2.753685 1.534468
H 4.762639 2.984777 2.353234
F 3.890273 5.064604 1.051537
C -0.081472 -2.802717 -1.032051
H 0.258289 -3.856379 -1.070783
H -0.356117 -2.476323 -2.05575
C -1.268784 -2.645928 -0.108155
C -2.495872 -2.17613 -0.617152
H -2.573849 -1.918281 -1.683867
C -3.595014 -1.982725 0.229993
H -4.553386 -1.599953 -0.148067
C -3.444793 -2.239051 1.597137
C -2.238801 -2.709264 2.130221
H -2.158333 -2.88387 3.21199
C -2.947814 2.100466 -1.522485
H -2.274602 2.046401 -2.393159
C -3.296161 1.441943 0.685929
H -2.859256 0.937835 1.563499
C -4.55751 2.048361 0.709431
H -5.164582 1.994558 1.624565
C -4.191044 2.742111 -1.569751
H -4.50264 3.251055 -2.493253
C -5.016437 2.712964 -0.436497
H -6.002654 3.201942 -0.446428
C -1.157161 -2.9195 1.267455
H -0.196144 -3.259369 1.68382
F -4.484942 -2.015292 2.424581
C 2.607802 3.558163 -0.253914
H 2.196957 4.405555 -0.820817
