56

C -0.699711 -0.980063 -0.391231
C -2.068215 -0.880381 -0.116196
C -1.570204 -3.073143 -0.472378
C -2.580001 1.498576 -0.576933
H -1.814119 1.463644 -1.367106
C -3.255785 2.695891 -0.313299
H -3.013665 3.586024 -0.908663
C -4.229956 2.743725 0.706009
C -4.503602 1.579824 1.457526
H -5.246176 1.643576 2.265712
C -3.818251 0.394329 1.192763
H -4.006351 -0.480038 1.833913
C -2.849338 0.326205 0.162084
C 0.879088 -2.85558 -1.001635
H 1.077093 -2.482041 -2.026967
H 0.798936 -3.960052 -1.032257
C 1.989374 -2.415685 -0.073124
C 1.934713 -2.694359 1.304851
H 1.07607 -3.244414 1.720254
C 2.931504 -2.229597 2.170383
H 2.885936 -2.407429 3.253671
C 3.998492 -1.4965 1.637868
C 4.094471 -1.225059 0.268771
H 4.939711 -0.632662 -0.10883
C 3.076708 -1.677527 -0.581293
H 3.099634 -1.418817 -1.650416
C 3.000912 2.026574 0.668736
H 2.68634 1.443369 1.549867
C 4.092207 2.903062 0.687828
H 4.693329 2.995663 1.603823
C 4.392427 3.643946 -0.463898
H 5.242836 4.342885 -0.477725
C 3.585285 3.475313 -1.598207
H 3.776993 4.032769 -2.526408
C 2.519471 2.569163 -1.546064
H 1.879299 2.354744 -2.417013
C -1.830102 -4.447926 -0.593196
H -1.007793 -5.138218 -0.821548
C -3.138122 -4.898123 -0.428361
H -3.36515 -5.969717 -0.514029
C -4.175852 -3.966407 -0.163106
H -5.216997 -4.299179 -0.054822
C -3.895815 -2.619339 -0.042935
H -4.649197 -1.844298 0.14192
C -4.684298 5.054869 0.342413
H -3.629261 5.386153 0.468839
H -5.355909 5.819295 0.775298
H -4.898993 4.960161 -0.745907
Cl 0.410495 0.572932 1.897623
Cl 0.792816 0.117527 -2.776435
F 4.952354 -1.028466 2.467775
N -2.599019 -2.174312 -0.175456
N -0.434828 -2.331006 -0.603874
N 2.233558 1.860903 -0.431693
O -4.94565 3.851066 1.039238
Pd 0.674234 0.399101 -0.423756
