27

Pt 0.324392 -0.417677 -0.05469
Cl 2.022546 -1.809474 -0.836606
Cl -1.2762 -1.296835 -1.498855
Cl -0.246309 -1.886885 1.688658
O 0.824862 1.09341 -1.365595
O 2.203395 2.851073 -1.554417
O -4.112512 0.919158 -1.12497
O -3.572915 0.04667 0.899745
N 1.731934 0.5355 1.179473
N -1.054547 0.975108 0.780377
C 0.944817 1.30265 2.182487
C -0.237133 1.985967 1.502793
C 2.606613 1.318012 0.267052
C 1.847346 1.84048 -0.975372
C -2.027686 1.542846 -0.175099
C -3.306658 0.726444 -0.075115
H 2.26201 -0.219062 1.642734
H -1.606059 0.387375 1.448424
H 0.580759 0.560487 2.921185
H 1.58611 2.048937 2.696361
H 0.109321 2.737345 0.765426
H -0.859933 2.516588 2.253696
H 3.097837 2.158836 0.795182
H 3.375262 0.614803 -0.111677
H -2.271246 2.591868 0.103553
H -1.613373 1.5413 -1.201447
H -4.912002 0.369502 -0.969478
