55

Cd 1.738362 6e-05 -5.8e-05
Br 2.814489 -0.368619 -2.322008
Br 2.814116 0.368702 2.322084
N 1.57987 -2.438628 0.380906
C -0.432198 2.072077 -1.658641
H -1.216659 2.491932 -2.318938
N -1.49112 0.03683 -1.56054
C -4.342845 1.773811 0.095761
H -4.337856 1.347789 -0.918751
C -4.357823 -2.867818 -2.680219
H -4.362155 -3.298142 -3.693108
C 2.589927 3.204941 0.044179
H 3.263518 2.729273 0.780397
C -2.398337 0.306993 0.690278
C 2.766227 4.527654 -0.400064
H 3.60821 5.126236 -0.023979
N -1.49112 -0.036906 1.560477
N -0.511515 0.859893 -1.214693
C 0.684382 -2.935862 1.26136
C 2.590178 -3.204767 -0.044142
H 3.263711 -2.729097 -0.780411
C -3.421257 -1.884757 -2.349942
H -2.682527 -1.532913 -3.084639
C -2.398317 -0.307134 -0.690347
N 1.579685 2.438738 -0.380916
C -0.43201 -2.072045 1.65866
H -1.216418 -2.491924 2.319004
N -0.511449 -0.859898 1.214631
C -5.281512 2.758524 0.433508
H -6.009007 3.098897 -0.318591
C -3.401327 1.32543 1.050036
C 0.787862 4.250938 -1.757721
H 0.043421 4.629322 -2.474074
C -5.293162 3.307416 1.724791
H -6.031335 4.079407 1.989866
C -3.401232 -1.325644 -1.050107
C 1.850339 -5.053736 1.320962
H 1.958624 -6.082928 1.695112
C 0.684129 2.935963 -1.261307
C -3.421419 1.884518 2.349881
H -2.682686 1.532702 3.08459
C -4.342744 -1.774065 -0.095846
H -4.337805 -1.348026 0.918659
C -5.281343 -2.758842 -0.433598
H -6.008834 -3.099247 0.318491
C -4.358052 2.867516 2.680153
H -4.362436 3.297821 3.693051
C -5.292929 -3.307757 -1.724871
H -6.031048 -4.079799 -1.989949
C 0.788255 -4.250783 1.757888
H 0.043871 -4.629176 2.474297
C 1.849876 5.053957 -1.320745
H 1.958049 6.083194 -1.694805
C 2.766619 -4.527424 0.400213
H 3.608651 -5.125958 0.024162
