55

C -0.366041 2.905821 -1.348846
C -0.445097 4.204754 -1.890448
H 0.320876 4.551588 -2.599966
C -1.510319 5.030984 -1.509506
H -1.599245 6.048085 -1.919911
C -2.45608 4.541365 -0.598551
H -3.304503 5.156526 -0.266383
C -2.302088 3.233483 -0.10606
H -3.005663 2.794294 0.624316
C 0.746766 2.02076 -1.703377
H 1.545293 2.415942 -2.361783
C 2.694238 -0.331535 -0.678676
C 2.694235 0.332447 0.678351
C 0.747915 -2.020802 1.702574
H 1.546946 -2.416028 2.360347
C -0.364599 -2.906204 1.348053
C -0.442528 -4.205608 1.888718
H 0.324047 -4.552467 2.597571
C -1.50738 -5.032261 1.507678
H -1.595408 -6.049741 1.917339
C -2.453931 -4.542572 0.597578
H -3.302105 -5.158038 0.265337
C -2.30107 -3.23421 0.106022
H -3.005301 -2.794941 -0.623671
C 3.69656 1.362977 1.003716
C 4.643281 1.77366 0.037729
H 4.643434 1.308889 -0.959648
C 5.581102 2.769866 0.342557
H 6.312873 3.080736 -0.418108
C 5.586426 3.367622 1.612023
H 6.323856 4.148725 1.85121
C 4.64596 2.965391 2.578681
H 4.645384 3.434261 3.574307
C 3.710004 1.971308 2.281311
H 2.966622 1.648954 3.024835
C 3.69675 -1.361923 -1.004009
C 4.643552 -1.772415 -0.038024
H 4.643654 -1.30761 0.959337
C 5.58154 -2.768472 -0.342835
H 6.313379 -3.079185 0.41783
C 5.586942 -3.366277 -1.612277
H 6.324504 -4.147261 -1.851448
C 4.646397 -2.964233 -2.578935
H 4.645895 -3.433127 -3.574551
C 3.710284 -1.970292 -2.281585
H 2.966853 -1.648069 -3.025116
N -1.287005 2.444049 -0.474209
N 0.804277 0.815603 -1.237026
N 1.782024 -0.021903 -1.556059
N 1.782264 0.022366 1.555841
N 0.804728 -0.815347 1.236893
N -1.286323 -2.444377 0.474262
Cd -1.448446 -0.000231 0.000366
I -2.614501 0.424328 2.48807
I -2.614984 -0.42461 -2.487288
