80

Cd 0.038818 0.004934 0.377221
N 1.360539 1.693239 0.02912
N -1.659238 1.337798 -0.014359
N -1.304942 -1.685346 -0.011474
N 1.715512 -1.331371 0.031734
O -0.983446 -0.112892 2.69273
C 2.72906 1.617023 -0.028274
C 3.251864 2.9766 -0.115878
H 4.310777 3.251262 -0.165114
C 2.169878 3.828743 -0.141339
H 2.189023 4.920059 -0.231485
C 0.968801 3.00561 -0.045541
C -0.380915 3.481136 -0.081171
C -1.58541 2.707083 -0.086067
C -2.945173 3.227423 -0.174599
H -3.221477 4.285415 -0.235217
C -3.798028 2.144464 -0.180408
H -4.889979 2.162832 -0.264047
C -2.974419 0.945225 -0.075505
C -3.449126 -0.406353 -0.088267
C -2.675217 -1.611672 -0.082745
C -3.195358 -2.97208 -0.166946
H -4.253182 -3.249331 -0.226354
C -2.111292 -3.823545 -0.176989
H -2.128902 -4.915598 -0.2596
C -0.912612 -2.999681 -0.071563
C 0.438416 -3.473376 -0.076481
C 1.641309 -2.698763 -0.051007
C 3.002532 -3.219187 -0.128018
H 3.278576 -4.276945 -0.192822
C 3.853978 -2.136365 -0.120914
H 4.946638 -2.152698 -0.19398
C 3.028286 -0.937754 -0.016671
C 3.502753 0.412815 -0.025997
C 4.989143 0.579944 -0.074724
C 5.792237 0.171757 1.012416
H 5.307817 -0.25968 1.901378
C 7.18617 0.321654 0.969493
H 7.795607 0.003413 1.829177
C 7.801871 0.880143 -0.161874
H 8.895708 0.997174 -0.195795
C 7.014175 1.286801 -1.25063
H 7.489267 1.718154 -2.145052
C 5.620131 1.13807 -1.207789
H 5.0032 1.445046 -2.065755
C -0.548429 4.966291 -0.153028
C -0.141817 5.787888 0.921009
H 0.290862 5.318977 1.817697
C -0.293865 7.18069 0.855711
H 0.023588 7.804404 1.705393
C -0.853276 7.777266 -0.285417
H -0.971858 8.870237 -0.337008
C -1.258567 6.971407 -1.361324
H -1.690331 7.431323 -2.263444
C -1.10759 5.578519 -1.296037
H -1.413142 4.947517 -2.144214
C -4.935154 -0.574144 -0.143952
C -5.747047 -0.161709 0.935054
H -5.271015 0.277511 1.825058
C -7.1405 -0.313417 0.884874
H -7.755782 0.009234 1.738703
C -7.747987 -0.879252 -0.247188
H -8.84136 -0.99816 -0.287461
C -6.952409 -1.290366 -1.328526
H -7.421022 -1.727213 -2.223667
C -5.558982 -1.138954 -1.277818
H -4.93623 -1.44929 -2.130298
C 0.608319 -4.958616 -0.151066
C 0.200517 -5.783673 0.919516
H -0.233301 -5.318025 1.817345
C 0.353968 -7.176199 0.850474
H 0.035891 -7.802813 1.697784
C 0.916492 -7.768626 -0.291236
H 1.036668 -8.861276 -0.345735
C 1.323746 -6.959042 -1.363561
H 1.759073 -7.415658 -2.265636
C 1.171013 -5.566474 -1.29443
H 1.479376 -4.932199 -2.139137
H -1.630552 0.587952 2.471927
H -1.471639 -0.929376 2.460407
