37

Ni 1.3e-05 -0.299295 8.3e-05
S -1.410215 -1.917914 0.402712
S 1.410181 -1.917945 -0.402479
N -1.401473 1.178107 0.225956
N 1.401418 1.178117 -0.225904
C -2.895798 -1.496071 -0.587544
H -2.646954 -1.550524 -1.670786
H -3.6221 -2.313546 -0.392242
C -3.540076 -0.15299 -0.270833
H -3.878712 -0.132727 0.786389
H -4.457259 -0.018455 -0.888283
C -2.651449 1.046674 -0.574724
H -2.337065 1.004951 -1.639274
H -3.241176 1.986857 -0.441771
C -0.72585 2.420466 -0.213389
H -1.249043 3.324008 0.180954
H -0.799784 2.468548 -1.317973
C 0.725828 2.420391 0.213711
H 1.249058 3.324006 -0.180424
H 0.799764 2.468197 1.318309
C 2.651611 1.046738 0.574442
H 2.337512 1.005007 1.639076
H 3.241258 1.986949 0.441333
C 3.540209 -0.152894 0.270335
H 3.878559 -0.132646 -0.786978
H 4.457555 -0.018304 0.88753
C 2.896066 -1.495981 0.587278
H 2.647578 -1.550404 1.670604
H 3.622322 -2.313446 0.391767
C -1.700738 1.216955 1.672399
H -0.778863 1.44049 2.240274
H -2.046574 0.213682 1.985386
H -2.46721 1.995568 1.902746
C 1.700305 1.217064 -1.672423
H 2.466602 1.995799 -1.902947
H 0.778255 1.440457 -2.240067
H 2.04621 0.213856 -1.985533
