53

Ru -0.444459 -4e-05 7.4e-05
O -0.458411 0.86698 -1.827131
O -1.905258 1.236359 0.71068
O -1.904667 -1.237343 -0.710258
O -0.457473 -0.86705 1.827263
N 0.918028 1.310206 0.682864
N 0.918613 -1.30957 -0.682998
N 2.683449 0.912152 -2.379901
N 2.684379 -0.910561 2.37944
C -1.033695 2.306594 -3.593551
H 0.046187 2.445824 -3.802831
H -1.581877 3.240458 -3.815186
H -1.390595 1.511656 -4.28129
C -1.210903 1.85365 -2.162762
C -2.14699 2.501351 -1.322648
H -2.709374 3.334546 -1.765613
C -2.458205 2.167462 0.014254
C -3.536251 2.936425 0.744986
H -3.127722 3.339834 1.693893
H -4.358986 2.245056 1.021666
H -3.950407 3.766253 0.143891
C -3.533579 -2.939357 -0.744649
H -3.124658 -3.342066 -1.693687
H -4.357152 -2.248916 -1.021175
H -3.946703 -3.769787 -0.143687
C -2.456382 -2.169222 -0.013903
C -2.144604 -2.502953 1.322909
H -2.706039 -3.336793 1.765863
C -1.209056 -1.85439 2.162966
C -1.031599 -2.306941 3.59385
H 0.048504 -2.44317 3.803893
H -1.577411 -3.242309 3.815012
H -1.391309 -1.513088 4.281399
C 0.71439 1.819281 1.933823
H -0.188219 1.450094 2.436594
C 1.589495 2.712779 2.544701
H 1.362503 3.067239 3.560145
C 2.74648 3.132529 1.865999
H 3.460496 3.828436 2.328414
C 2.965973 2.632939 0.580855
H 3.848822 2.919544 -0.006852
C 2.043396 1.733436 0.00925
C 2.32506 1.243127 -1.310518
C 0.71499 -1.81878 -1.9339
H -0.187939 -1.450112 -2.436479
C 1.59048 -2.711774 -2.544961
H 1.363484 -3.066367 -3.560358
C 2.74785 -3.130855 -1.866498
H 3.462172 -3.826348 -2.329062
C 2.967323 -2.631141 -0.581399
H 3.850451 -2.91725 0.00613
C 2.044352 -1.732151 -0.009613
C 2.325997 -1.241697 1.310105
