84

Rh -0.019839 -0.33648 0.012123
Cl -0.02224 -2.736467 -0.03967
P 2.34994 -0.279692 0.158767
N 2.954855 1.189458 -0.51803
C 2.473768 1.644748 -1.828593
H 3.006968 1.142132 -2.674774
H 1.395123 1.412753 -1.944077
C 2.811847 3.133573 -1.816087
H 2.075088 3.671985 -1.185603
H 2.809985 3.587506 -2.826672
C 4.199839 3.123303 -1.160413
H 4.968815 2.869925 -1.919715
H 4.486905 4.094355 -0.711372
C 4.114244 1.997999 -0.104052
H 3.956819 2.420319 0.911737
H 5.063016 1.41937 -0.068677
C 2.787032 -0.21446 2.021867
C 2.059432 -1.39666 2.697966
H 0.977993 -1.391094 2.454331
H 2.176362 -1.29879 3.79816
H 2.463685 -2.379983 2.399903
C 2.171189 1.081255 2.588337
H 2.552818 2.00021 2.106235
H 2.401683 1.141091 3.673064
H 1.070345 1.071642 2.470835
C 4.287776 -0.285351 2.351817
H 4.868338 0.552998 1.926066
H 4.744389 -1.233351 2.009391
H 4.411327 -0.244823 3.455334
C 3.372968 -1.653211 -0.738922
C 3.438155 -2.975702 0.04157
H 2.4263 -3.343336 0.295586
H 4.042816 -2.89185 0.965557
H 3.929212 -3.739174 -0.600178
C 2.649621 -1.897992 -2.08035
H 1.635756 -2.308469 -1.913995
H 3.236078 -2.630402 -2.67613
H 2.561998 -0.97313 -2.683398
C 4.796857 -1.149067 -1.030285
H 4.793219 -0.241179 -1.663832
H 5.344972 -1.939082 -1.58733
H 5.374441 -0.93387 -0.111204
P -2.388586 -0.255437 -0.148568
N -2.969847 1.176808 0.614448
C -4.126648 2.020458 0.328995
H -5.034463 1.690849 0.892914
H -4.387489 2.014973 -0.743777
C -3.663347 3.404302 0.824486
H -3.121192 3.924221 0.009809
H -4.517786 4.043524 1.122643
C -2.695573 3.091689 1.99584
H -3.098357 3.419354 2.974474
H -1.722194 3.5948 1.844946
C -2.522808 1.555331 1.955468
H -1.484192 1.204485 2.125507
H -3.16264 1.08105 2.741065
C -2.810722 -0.052944 -2.00723
C -2.288842 1.32621 -2.456486
H -1.207127 1.425677 -2.244034
H -2.80856 2.174208 -1.973156
H -2.43202 1.419602 -3.553881
C -1.986735 -1.126142 -2.751986
H -0.904958 -1.015154 -2.533168
H -2.144758 -1.002321 -3.844511
H -2.27427 -2.157338 -2.478602
C -4.295467 -0.205786 -2.383428
H -4.952994 0.533566 -1.888696
H -4.683387 -1.215686 -2.154067
H -4.40058 -0.056913 -3.47951
C -3.433764 -1.677005 0.630694
C -3.467492 -2.952819 -0.226831
H -4.035658 -2.818701 -1.1675
H -3.979675 -3.752399 0.351173
H -2.445563 -3.304223 -0.463041
C -4.865208 -1.184241 0.904972
H -5.398691 -0.865843 -0.010306
H -4.880291 -0.344356 1.625829
H -5.447486 -2.016554 1.355789
C -2.751987 -1.996732 1.97755
H -2.679213 -1.104976 2.630643
H -1.735092 -2.40278 1.818811
H -3.358194 -2.756418 2.516604
C -0.01002 1.465875 0.07891
O 0.001646 2.639554 0.130361
