53

Fe 1.798796 -0.269318 0.287422
P -0.400281 -0.055447 -0.036458
N -0.956486 -0.855153 -1.417867
C -0.160993 -1.533465 -2.459711
H 0.24857 -0.803118 -3.195422
H 0.693713 -2.087657 -2.025075
C -1.174375 -2.469019 -3.132399
H -1.232768 -3.425854 -2.572756
H -0.899814 -2.707177 -4.177623
C -2.494832 -1.699964 -3.002463
H -3.392602 -2.331692 -3.142333
H -2.539269 -0.88105 -3.751003
C -2.406471 -1.116651 -1.588842
H -3.002121 -0.187778 -1.465115
H -2.766902 -1.847017 -0.829495
N -1.352625 -0.566182 1.259614
C -1.240882 -1.959597 1.749868
H -1.02684 -2.665756 0.920389
H -0.413426 -2.048996 2.490143
C -2.600356 -2.229437 2.408088
H -3.322427 -2.60067 1.650985
H -2.536025 -2.989216 3.209878
C -3.021078 -0.841471 2.903817
H -2.465579 -0.578715 3.828084
H -4.102346 -0.758236 3.124243
C -2.591758 0.080147 1.758111
H -3.371304 0.124563 0.964187
H -2.404169 1.117211 2.094246
C -0.848439 1.709522 -0.207973
C -1.284281 2.201528 -1.453323
H -1.409503 1.507766 -2.298927
C -1.556865 3.570211 -1.611552
H -1.904063 3.949089 -2.584276
C -1.387773 4.450404 -0.532355
H -1.601673 5.522232 -0.657519
C -0.941492 3.964089 0.709577
H -0.807021 4.654033 1.55599
C -0.66642 2.599768 0.872899
H -0.309484 2.227003 1.845797
C 2.122247 0.882449 -1.454654
H 1.36103 1.15815 -2.194094
C 2.468762 1.644495 -0.291009
H 2.013084 2.592874 0.016385
C 3.523436 0.940436 0.391861
H 4.010897 1.259394 1.321782
C 3.821697 -0.246668 -0.340895
H 4.574045 -0.999208 -0.075547
C 2.948941 -0.284058 -1.487535
H 2.934074 -1.064593 -2.257235
C 1.702028 -2.021403 0.38832
O 1.687938 -3.180269 0.43634
C 1.530503 -0.015804 2.006412
O 1.389767 0.167102 3.142228
