72

Co 0.050177 -1.162262 -0.844558
S -1.135177 -1.231833 1.078349
P 1.379695 0.31886 0.094596
S -1.21422 0.503168 -1.699107
C 0.705087 1.78839 0.978554
C -2.726393 -0.528597 0.607558
C 2.484739 -0.555094 1.290153
C 0.322188 2.892646 0.184758
H 0.433602 2.851245 -0.906617
C 0.867168 -3.085469 -0.633051
C 1.637801 -2.276648 -1.539628
H 2.696665 -2.018314 -1.411168
C 3.836509 -0.820047 0.979753
H 4.277068 -0.429229 0.051204
C 0.803068 -1.88651 -2.639965
H 1.106384 -1.301368 -3.514566
C -0.464064 -3.170732 -1.193795
H -1.315138 -3.668532 -0.715121
C -0.222368 4.036825 0.781494
H -0.527554 4.883824 0.14923
C 1.943466 -1.098404 2.478036
H 0.873292 -0.97244 2.69993
C -2.761627 0.350087 -0.784062
C -0.39093 4.095754 2.173639
H -0.828422 4.990972 2.640511
C -0.500458 -2.451302 -2.416624
H -1.38223 -2.289214 -3.046173
C 2.542782 1.193491 -1.045661
C 3.573842 1.999687 -0.51347
H 3.71425 2.063232 0.576294
C 2.748457 -1.841041 3.353567
H 2.309219 -2.247807 4.276947
C -0.000569 3.007119 2.966835
H -0.124941 3.044781 4.05936
C 2.338283 1.169189 -2.435849
H 1.500789 0.589107 -2.845035
C 0.544877 1.857395 2.375072
H 0.848054 1.021837 3.016732
C 4.096314 -2.082848 3.046001
H 4.725088 -2.670832 3.731393
C 4.409422 2.730006 -1.367985
H 5.213898 3.350183 -0.944424
C 4.632946 -1.579803 1.850814
H 5.684584 -1.774901 1.591258
C 1.347243 -3.794858 0.590608
H 2.325767 -3.410631 0.931135
H 1.460414 -4.879184 0.377502
H 0.618382 -3.693145 1.419116
C 4.212238 2.683917 -2.759295
H 4.865903 3.264458 -3.42776
C 3.169966 1.911573 -3.290586
H 2.993687 1.890339 -4.376594
B -3.535425 -1.19813 -0.767024
H -3.007157 -2.100309 -1.352619
B -2.871759 1.191818 0.731525
H -1.915002 1.798859 1.105706
B -4.281177 0.184012 -1.574347
H -4.278779 0.200015 -2.780215
B -4.215565 -1.356813 0.854673
H -4.163743 -2.439934 1.382923
B -5.253187 -0.878019 -0.51727
H -6.067998 -1.642094 -0.980337
B -3.803423 0.111391 1.777222
H -3.47996 0.029603 2.936577
B -3.86714 1.655109 -0.655876
H -3.593244 2.677062 -1.235441
B -4.584251 1.505743 0.975618
H -4.920856 2.482284 1.604208
B -5.427973 -0.068356 1.062196
H -6.395301 -0.236357 1.768153
B -5.468139 0.891553 -0.450904
H -6.4663 1.433382 -0.866138
