39

Mo 2e-06 1.372746 1.2e-05
Br -7.256137 -1.034996 -0.231785
O -1.668864 0.960863 0.983489
O -0.688551 2.374188 -1.199165
N -0.806364 -0.513281 -1.249815
C -2.874474 0.516794 0.668397
C -3.971491 0.909977 1.475063
H -3.771218 1.592157 2.313347
C -5.263866 0.459189 1.207381
H -6.105155 0.784015 1.836262
C -5.492799 -0.417532 0.126098
C -4.430802 -0.834733 -0.67417
H -4.608784 -1.525838 -1.511593
C -3.113113 -0.374239 -0.425739
C -2.048025 -0.88275 -1.269561
H -2.355442 -1.676084 -1.988141
C 0.118847 -1.180205 -2.148012
H -0.381188 -1.964208 -2.757408
H 0.938976 -1.644469 -1.562062
H 0.59354 -0.434291 -2.81559
Br 7.256136 -1.035001 0.231777
O 1.668866 0.960879 -0.983476
O 0.688559 2.374159 1.19921
N 0.806359 -0.513316 1.249791
C 2.874475 0.516803 -0.66839
C 3.971496 0.910008 -1.47504
H 3.771226 1.592208 -2.313308
C 5.26387 0.459216 -1.207362
H 6.105161 0.784059 -1.836232
C 5.492799 -0.417531 -0.126101
C 4.430799 -0.834753 0.674153
H 4.608778 -1.525878 1.51156
C 3.113111 -0.374255 0.425727
C 2.048019 -0.882786 1.269532
H 2.355433 -1.67614 1.988092
C -0.118856 -1.180262 2.147968
H 0.381176 -1.964283 2.757343
H -0.938984 -1.644508 1.562003
H -0.593548 -0.434366 2.815566
