39

Mo -1e-06 1.206713 5e-06
Cl -7.103748 -1.156116 0.361143
O -1.6907 0.79497 -0.944678
C -4.004094 0.741653 -1.384433
H -3.822907 1.424351 -2.226558
C -2.888848 0.349231 -0.602702
N -0.777469 -0.679738 1.267545
C -5.289238 0.289471 -1.088068
H -6.148435 0.610204 -1.694259
C -4.413448 -1.004227 0.773291
H -4.578333 -1.69581 1.612781
O -0.65999 2.208062 1.215383
C -3.102395 -0.542679 0.495863
C -5.494436 -0.588097 -0.002313
C -2.018046 -1.050494 1.31508
H -2.308213 -1.844544 2.040017
C 0.16829 -1.346084 2.144419
H -0.317123 -2.131013 2.76441
H 0.657051 -0.600039 2.801623
H 0.975743 -1.809096 1.540157
Cl 7.103749 -1.156112 -0.361147
O 1.690698 0.794962 0.944685
C 4.004092 0.74164 1.384442
H 3.822904 1.42433 2.226574
C 2.888847 0.349226 0.602705
N 0.777471 -0.679724 -1.267557
C 5.289236 0.28946 1.088075
H 6.148432 0.610187 1.694271
C 4.413449 -1.004218 -0.773299
H 4.578336 -1.695792 -1.612796
O 0.659988 2.208073 -1.215365
C 3.102396 -0.542672 -0.495869
C 5.494436 -0.588097 0.002311
C 2.018049 -1.050478 -1.315094
H 2.308218 -1.844519 -2.040041
C -0.168286 -1.346059 -2.144441
H 0.317128 -2.13098 -2.764441
H -0.657046 -0.600006 -2.801635
H -0.97574 -1.809079 -1.540185
