66

Mo 1.065616 -0.061817 0.104143
N 2.344291 -1.343112 -1.306696
N 3.695639 -1.214184 -1.29347
N 2.647333 1.516401 -0.312082
N 3.949868 1.166352 -0.469313
N 2.649283 -0.704827 1.491027
N 3.960635 -0.734881 1.145265
O -2.049166 -0.712253 -0.843541
O -5.314506 1.586066 -1.775341
O -0.657494 -2.301592 1.431328
O -0.205134 1.650509 2.388113
B 4.398288 -0.298269 -0.273575
C 2.058135 -2.269136 -2.2456
C 3.238548 -2.743331 -2.850293
C 4.26115 -2.043643 -2.20784
C 2.604568 2.865541 -0.324296
C 3.895647 3.396462 -0.508662
C 4.724202 2.274902 -0.589065
C 2.564091 -1.119453 2.773637
C 3.846348 -1.423063 3.266178
C 4.705813 -1.162652 2.193731
C -0.744878 -0.776715 -1.281875
C -0.047986 0.385596 -1.743927
C -0.370286 1.551485 -0.987896
C -1.707235 1.690045 -0.402133
C -2.28089 2.891879 -0.140386
C -3.661825 3.062321 0.417592
C -4.30507 1.744987 0.878607
C -3.951976 0.559923 -0.037421
C -2.417588 0.406167 -0.020529
C -4.417156 0.822771 -1.469851
C -4.597538 -0.775549 0.426305
C -6.123484 -0.777063 0.555616
C -6.704444 -2.153677 0.914711
C -6.547305 -3.214263 -0.178033
C -0.00715 -1.485754 0.889824
C 0.267597 1.020055 1.51823
H 5.609446 -0.38669 -0.390372
H 1.023119 -2.56364 -2.444927
H 3.332981 -3.494847 -3.639785
H 5.34912 -2.07613 -2.327772
H 1.653699 3.388401 -0.178711
H 4.186283 4.449608 -0.567511
H 5.808328 2.1823 -0.713893
H 1.586359 -1.177881 3.264455
H 4.113332 -1.782573 4.264365
H 5.793627 -1.249543 2.100419
H -0.588717 -1.750373 -1.767241
H 0.636385 0.38065 -2.60367
H 0.141773 2.49074 -1.24342
H -1.713918 3.807739 -0.384347
H -3.641818 3.789502 1.258702
H -4.303155 3.534234 -0.361504
H -5.404012 1.867506 0.915004
H -3.968078 1.492875 1.906821
H -2.122551 0.141587 1.022597
H -3.882397 0.204382 -2.250225
H -4.26835 -1.569374 -0.27507
H -4.137908 -1.039943 1.405313
H -6.585461 -0.419996 -0.391209
H -6.431458 -0.046416 1.332803
H -6.231836 -2.514935 1.855549
H -7.783682 -2.030643 1.148913
H -7.023128 -4.171552 0.115845
H -5.482342 -3.433101 -0.397592
H -7.019595 -2.883309 -1.127012
