69

Nb -1.108133 -0.320045 -0.264071
Cl -1.79461 -1.094541 -2.443061
N 0.524268 0.971079 -1.455679
N 1.794572 1.017256 -0.950546
N 0.109102 0.338441 1.604314
N 1.458502 0.513494 1.516252
N 0.666901 -1.751639 -0.326664
N 1.942839 -1.342429 -0.095543
C -2.022402 1.680085 0.228468
C -3.145093 1.859513 -0.81201
C -1.117261 2.921075 0.316483
C -4.339421 -1.281014 0.435979
C -2.862743 -1.161719 0.486543
C -1.817146 -1.696306 1.11357
C -1.45311 -2.667832 2.173261
C 0.513785 1.760889 -2.559811
C 1.796702 2.319672 -2.746694
C 2.588583 1.827046 -1.70784
C -1.766675 4.112309 1.034325
C -0.252763 0.664142 2.873118
C 0.897918 1.052137 3.593754
C 1.969149 0.944777 2.70461
C 0.709876 -3.07553 -0.630283
C 2.053105 -3.506933 -0.576722
C 2.811789 -2.38166 -0.235356
C -0.678736 2.008387 -3.425731
C 4.034169 2.081129 -1.422826
C -1.648454 0.650104 3.413674
C 3.420471 1.219962 2.932198
C -0.482535 -3.882616 -1.027447
C 4.288148 -2.252383 -0.042692
B 2.227545 0.135532 0.235804
H 3.415758 0.282209 0.42981
H -2.51032 1.550824 1.216731
H -3.902546 1.054989 -0.776162
H -2.763157 1.896588 -1.849154
H -3.688721 2.818883 -0.644191
H -0.169744 2.673291 0.838435
H -0.813371 3.232931 -0.705383
H -4.736026 -2.128139 1.036134
H -4.678319 -1.395478 -0.615605
H -4.81002 -0.345818 0.809585
H -2.296584 -3.32576 2.475204
H -0.595551 -3.299961 1.861737
H -1.106164 -2.121238 3.076328
H 2.108735 2.996708 -3.548649
H -1.095925 4.996494 1.051424
H -2.008756 3.860204 2.088834
H -2.713327 4.426883 0.547243
H 0.940611 1.372723 4.639798
H 2.426846 -4.51705 -0.77339
H -1.337759 1.122008 -3.466816
H -0.347725 2.256254 -4.452357
H -1.274639 2.868285 -3.055303
H 4.434771 2.80632 -2.155353
H 4.641558 1.155437 -1.491206
H 4.190618 2.497988 -0.407251
H -2.321952 0.007461 2.821244
H -1.642395 0.29145 4.461883
H -2.079304 1.672619 3.420603
H 3.570987 1.594059 3.96191
H 4.041197 0.3098 2.803466
H 3.812417 1.98245 2.229002
H -1.366133 -3.660968 -0.399938
H -0.250515 -4.961988 -0.95792
H -0.780316 -3.647735 -2.069543
H 4.773212 -3.233366 -0.201054
H 4.543426 -1.90309 0.978554
H 4.735792 -1.529705 -0.755103
