41

Pt 0.766781 -0.244215 0.062274
I -0.455997 -2.712118 0.114647
N 2.624804 -1.065983 0.424507
H 2.748622 -1.076141 1.448676
H 2.650208 -2.051542 0.115595
N -1.077604 0.622676 -0.328752
H -0.976209 1.576264 -0.713301
H -1.483809 0.054987 -1.090984
C 3.698044 -0.236717 -0.224804
H 4.659469 -0.408859 0.308686
C 3.261033 1.207641 -0.099558
C 1.855754 1.439534 -0.014759
C 1.422195 2.781497 0.037473
H 0.349021 3.020123 0.122437
C 2.336974 3.848225 -0.000531
H 1.967758 4.885193 0.041149
C 3.715833 3.598689 -0.079026
H 4.432357 4.43348 -0.098651
C 4.175168 2.272172 -0.125337
H 5.257083 2.066678 -0.183755
C 3.850766 -0.671543 -1.684515
H 2.888216 -0.537598 -2.218155
H 4.161606 -1.734564 -1.763865
H 4.617204 -0.04847 -2.183486
C -2.08166 0.649971 0.798032
H -2.105718 -0.39897 1.158631
C -3.450355 0.987929 0.227464
C -3.948214 2.304674 0.174784
H -3.367352 3.131701 0.610427
C -5.190425 2.574902 -0.420585
H -5.568774 3.608148 -0.449897
C -5.950464 1.532163 -0.972471
H -6.925437 1.745076 -1.436556
C -5.46384 0.215654 -0.92516
H -6.056953 -0.608442 -1.349898
C -4.223302 -0.053089 -0.329796
H -3.838916 -1.086099 -0.288931
C -1.590176 1.548264 1.924745
H -0.607949 1.186861 2.287003
H -2.313287 1.534449 2.76255
H -1.462547 2.60209 1.602664
