49

Pd 0.959482 0.435879 -0.502532
P -1.159391 -0.044041 0.015883
Cl 1.493044 -1.719363 -1.215575
Cl 0.617646 2.604711 0.292268
O 2.965313 1.001359 -1.044712
N 3.980944 0.446676 -0.462792
C -2.336471 1.27338 -0.481886
C -3.50689 1.519482 0.260128
H -3.696234 0.965421 1.191685
C -4.427466 2.480124 -0.186398
H -5.337547 2.676447 0.400588
C -4.186409 3.189967 -1.372931
H -4.908928 3.944599 -1.719381
C -3.017865 2.944142 -2.112985
H -2.819947 3.50694 -3.037625
C -2.089315 1.993652 -1.66765
H -1.158684 1.814898 -2.227434
C -1.871852 -1.562491 -0.732845
C -1.34888 -2.822955 -0.367814
H -0.514367 -2.884631 0.343813
C -1.886112 -3.990883 -0.923359
H -1.475053 -4.969178 -0.631905
C -2.930846 -3.914815 -1.859733
H -3.344634 -4.834968 -2.299849
C -3.442406 -2.664183 -2.235189
H -4.259396 -2.596915 -2.969434
C -2.917889 -1.489274 -1.673287
H -3.328712 -0.512374 -1.965753
C -1.412328 -0.269367 1.826612
C -0.715516 0.56965 2.722271
H -0.025118 1.329573 2.319718
C -0.929176 0.446007 4.102454
H -0.384035 1.104921 4.795453
C -1.830084 -0.509724 4.600084
H -1.990433 -0.606262 5.684879
C -2.527117 -1.341576 3.710335
H -3.237539 -2.090215 4.092917
C -2.322754 -1.224324 2.326689
H -2.872261 -1.878777 1.634706
C 5.223488 0.645348 -1.015044
H 5.211211 1.259554 -1.924016
C 6.359365 0.094042 -0.434662
H 7.331476 0.281129 -0.912341
C 6.252852 -0.684298 0.729334
H 7.142414 -1.128814 1.196379
C 4.97602 -0.877911 1.275393
H 4.826422 -1.478344 2.183767
C 3.854972 -0.312798 0.674641
H 2.821288 -0.428497 1.030561
