60

W 0.048228 -0.286508 -0.296757
O 0.033005 -2.500679 0.222576
O -0.019756 -0.560927 2.247721
O 0.035968 1.605962 0.030557
O 1.932735 -0.539943 0.165471
O -1.849756 -0.546244 0.126417
N 0.055544 -0.42241 -1.985815
C 0.334352 -2.824211 1.598492
H 1.431349 -2.734944 1.747203
H 0.012663 -3.868882 1.789378
C -0.422783 -1.894688 2.524694
H -1.519465 -2.001408 2.372677
H -0.175871 -2.168727 3.57749
C 0.253866 -3.586911 -0.695673
H -0.496893 -4.379156 -0.499611
H 1.281745 -3.981159 -0.58394
H 0.115979 -3.177352 -1.70994
C -0.734022 0.424781 2.993442
H -0.505854 0.327356 4.077752
H -1.828713 0.328597 2.829807
H -0.397374 1.409532 2.623006
C 0.010827 2.862513 -0.576863
C 0.341923 2.842089 -2.066795
H 1.379401 2.492973 -2.212874
H 0.232315 3.852171 -2.50253
H -0.332996 2.136865 -2.584243
C 1.057184 3.724334 0.198117
C -1.423234 3.445194 -0.361211
C 3.226126 -0.564124 -0.342548
C 3.437006 0.400918 -1.51307
H 3.274081 1.432673 -1.156315
H 2.700078 0.166624 -2.303761
H 4.460876 0.313714 -1.920948
C 4.142149 -0.160171 0.856266
C 3.567148 -2.008411 -0.816273
C -3.092507 -0.825992 -0.434213
C -3.289605 -0.241663 -1.834835
H -2.453047 -0.567196 -2.480444
H -3.278116 0.859268 -1.771557
H -4.250315 -0.574165 -2.269644
C -4.129101 -0.204563 0.554147
C -3.282353 -2.374203 -0.503899
F 2.276181 3.146469 0.114099
F 0.747425 3.834082 1.504962
F 1.161032 4.967268 -0.314901
F -2.302069 2.806197 -1.169843
F -1.845453 3.293779 0.903767
F -1.475581 4.758342 -0.671209
F 3.7891 1.058864 1.305745
F 5.44452 -0.107033 0.497589
F 4.030985 -1.026805 1.885272
F 4.859697 -2.130248 -1.17847
F 3.323119 -2.937042 0.142275
F 2.809173 -2.335663 -1.887479
F -4.064957 -0.785141 1.777874
F -3.871531 1.107755 0.716415
F -5.39596 -0.325123 0.108026
F -4.558637 -2.709552 -0.784577
F -2.504181 -2.893733 -1.483402
F -2.93919 -2.996082 0.647033
